data_DOTSOV_clean
_audit_creation_date              2015-01-20
_audit_creation_method            'Materials Studio'
_symmetry_space_group_name_H-M    'P1'
_symmetry_Int_Tables_number       1
_symmetry_cell_setting            triclinic
loop_
_symmetry_equiv_pos_as_xyz
  x,y,z
_cell_length_a                    26.2833
_cell_length_b                    26.2833
_cell_length_c                    26.2833
_cell_angle_alpha                 90.0000
_cell_angle_beta                  90.0000
_cell_angle_gamma                 90.0000
loop_
_atom_site_label
_atom_site_type_symbol
_atom_site_fract_x
_atom_site_fract_y
_atom_site_fract_z
_atom_site_U_iso_or_equiv
_atom_site_adp_type
_atom_site_occupancy
O1     O     0.74376   0.55223   0.68329   0.01267  Uiso   1.00
O2     O     0.74376   0.05223   0.18329   0.01267  Uiso   1.00
O3     O     0.24376   0.55223   0.18329   0.01267  Uiso   1.00
O4     O     0.24376   0.05223   0.68329   0.01267  Uiso   1.00
O5     O     0.25624   0.44777   0.68329   0.01267  Uiso   1.00
O6     O     0.25624   0.94777   0.18329   0.01267  Uiso   1.00
O7     O     0.75624   0.44777   0.18329   0.01267  Uiso   1.00
O8     O     0.75624   0.94777   0.68329   0.01267  Uiso   1.00
O9     O     0.25624   0.55223   0.31671   0.01267  Uiso   1.00
O10    O     0.25624   0.05223   0.81671   0.01267  Uiso   1.00
O11    O     0.75624   0.55223   0.81671   0.01267  Uiso   1.00
O12    O     0.75624   0.05223   0.31671   0.01267  Uiso   1.00
O13    O     0.74376   0.44777   0.31671   0.01267  Uiso   1.00
O14    O     0.74376   0.94777   0.81671   0.01267  Uiso   1.00
O15    O     0.24376   0.44777   0.81671   0.01267  Uiso   1.00
O16    O     0.24376   0.94777   0.31671   0.01267  Uiso   1.00
O17    O     0.68329   0.74376   0.55223   0.01267  Uiso   1.00
O18    O     0.68329   0.24376   0.05223   0.01267  Uiso   1.00
O19    O     0.18329   0.74376   0.05223   0.01267  Uiso   1.00
O20    O     0.18329   0.24376   0.55223   0.01267  Uiso   1.00
O21    O     0.68329   0.25624   0.44777   0.01267  Uiso   1.00
O22    O     0.68329   0.75624   0.94777   0.01267  Uiso   1.00
O23    O     0.18329   0.25624   0.94777   0.01267  Uiso   1.00
O24    O     0.18329   0.75624   0.44777   0.01267  Uiso   1.00
O25    O     0.31671   0.25624   0.55223   0.01267  Uiso   1.00
O26    O     0.31671   0.75624   0.05223   0.01267  Uiso   1.00
O27    O     0.81671   0.25624   0.05223   0.01267  Uiso   1.00
O28    O     0.81671   0.75624   0.55223   0.01267  Uiso   1.00
O29    O     0.31671   0.74376   0.44777   0.01267  Uiso   1.00
O30    O     0.31671   0.24376   0.94777   0.01267  Uiso   1.00
O31    O     0.81671   0.74376   0.94777   0.01267  Uiso   1.00
O32    O     0.81671   0.24376   0.44777   0.01267  Uiso   1.00
O33    O     0.55223   0.68329   0.74376   0.01267  Uiso   1.00
O34    O     0.55223   0.18329   0.24376   0.01267  Uiso   1.00
O35    O     0.05223   0.68329   0.24376   0.01267  Uiso   1.00
O36    O     0.05223   0.18329   0.74376   0.01267  Uiso   1.00
O37    O     0.44777   0.68329   0.25624   0.01267  Uiso   1.00
O38    O     0.44777   0.18329   0.75624   0.01267  Uiso   1.00
O39    O     0.94777   0.68329   0.75624   0.01267  Uiso   1.00
O40    O     0.94777   0.18329   0.25624   0.01267  Uiso   1.00
O41    O     0.55223   0.31671   0.25624   0.01267  Uiso   1.00
O42    O     0.55223   0.81671   0.75624   0.01267  Uiso   1.00
O43    O     0.05223   0.31671   0.75624   0.01267  Uiso   1.00
O44    O     0.05223   0.81671   0.25624   0.01267  Uiso   1.00
O45    O     0.44777   0.31671   0.74376   0.01267  Uiso   1.00
O46    O     0.44777   0.81671   0.24376   0.01267  Uiso   1.00
O47    O     0.94777   0.31671   0.24376   0.01267  Uiso   1.00
O48    O     0.94777   0.81671   0.74376   0.01267  Uiso   1.00
O49    O     0.55223   0.74376   0.31671   0.01267  Uiso   1.00
O50    O     0.55223   0.24376   0.81671   0.01267  Uiso   1.00
O51    O     0.05223   0.74376   0.81671   0.01267  Uiso   1.00
O52    O     0.05223   0.24376   0.31671   0.01267  Uiso   1.00
O53    O     0.44777   0.25624   0.31671   0.01267  Uiso   1.00
O54    O     0.44777   0.75624   0.81671   0.01267  Uiso   1.00
O55    O     0.94777   0.25624   0.81671   0.01267  Uiso   1.00
O56    O     0.94777   0.75624   0.31671   0.01267  Uiso   1.00
O57    O     0.55223   0.25624   0.68329   0.01267  Uiso   1.00
O58    O     0.55223   0.75624   0.18329   0.01267  Uiso   1.00
O59    O     0.05223   0.25624   0.18329   0.01267  Uiso   1.00
O60    O     0.05223   0.75624   0.68329   0.01267  Uiso   1.00
O61    O     0.44777   0.74376   0.68329   0.01267  Uiso   1.00
O62    O     0.44777   0.24376   0.18329   0.01267  Uiso   1.00
O63    O     0.94777   0.74376   0.18329   0.01267  Uiso   1.00
O64    O     0.94777   0.24376   0.68329   0.01267  Uiso   1.00
O65    O     0.74376   0.68329   0.44777   0.01267  Uiso   1.00
O66    O     0.74376   0.18329   0.94777   0.01267  Uiso   1.00
O67    O     0.24376   0.68329   0.94777   0.01267  Uiso   1.00
O68    O     0.24376   0.18329   0.44777   0.01267  Uiso   1.00
O69    O     0.25624   0.68329   0.55223   0.01267  Uiso   1.00
O70    O     0.25624   0.18329   0.05223   0.01267  Uiso   1.00
O71    O     0.75624   0.68329   0.05223   0.01267  Uiso   1.00
O72    O     0.75624   0.18329   0.55223   0.01267  Uiso   1.00
O73    O     0.25624   0.31671   0.44777   0.01267  Uiso   1.00
O74    O     0.25624   0.81671   0.94777   0.01267  Uiso   1.00
O75    O     0.75624   0.31671   0.94777   0.01267  Uiso   1.00
O76    O     0.75624   0.81671   0.44777   0.01267  Uiso   1.00
O77    O     0.74376   0.31671   0.55223   0.01267  Uiso   1.00
O78    O     0.74376   0.81671   0.05223   0.01267  Uiso   1.00
O79    O     0.24376   0.31671   0.05223   0.01267  Uiso   1.00
O80    O     0.24376   0.81671   0.55223   0.01267  Uiso   1.00
O81    O     0.68329   0.55223   0.25624   0.01267  Uiso   1.00
O82    O     0.68329   0.05223   0.75624   0.01267  Uiso   1.00
O83    O     0.18329   0.55223   0.75624   0.01267  Uiso   1.00
O84    O     0.18329   0.05223   0.25624   0.01267  Uiso   1.00
O85    O     0.68329   0.44777   0.74376   0.01267  Uiso   1.00
O86    O     0.68329   0.94777   0.24376   0.01267  Uiso   1.00
O87    O     0.18329   0.44777   0.24376   0.01267  Uiso   1.00
O88    O     0.18329   0.94777   0.74376   0.01267  Uiso   1.00
O89    O     0.31671   0.55223   0.74376   0.01267  Uiso   1.00
O90    O     0.31671   0.05223   0.24376   0.01267  Uiso   1.00
O91    O     0.81671   0.55223   0.24376   0.01267  Uiso   1.00
O92    O     0.81671   0.05223   0.74376   0.01267  Uiso   1.00
O93    O     0.31671   0.44777   0.25624   0.01267  Uiso   1.00
O94    O     0.31671   0.94777   0.75624   0.01267  Uiso   1.00
O95    O     0.81671   0.44777   0.75624   0.01267  Uiso   1.00
O96    O     0.81671   0.94777   0.25624   0.01267  Uiso   1.00
O97    O     0.25624   0.44777   0.31671   0.01267  Uiso   1.00
O98    O     0.25624   0.94777   0.81671   0.01267  Uiso   1.00
O99    O     0.75624   0.44777   0.81671   0.01267  Uiso   1.00
O100   O     0.75624   0.94777   0.31671   0.01267  Uiso   1.00
O101   O     0.74376   0.55223   0.31671   0.01267  Uiso   1.00
O102   O     0.74376   0.05223   0.81671   0.01267  Uiso   1.00
O103   O     0.24376   0.55223   0.81671   0.01267  Uiso   1.00
O104   O     0.24376   0.05223   0.31671   0.01267  Uiso   1.00
O105   O     0.74376   0.44777   0.68329   0.01267  Uiso   1.00
O106   O     0.74376   0.94777   0.18329   0.01267  Uiso   1.00
O107   O     0.24376   0.44777   0.18329   0.01267  Uiso   1.00
O108   O     0.24376   0.94777   0.68329   0.01267  Uiso   1.00
O109   O     0.25624   0.55223   0.68329   0.01267  Uiso   1.00
O110   O     0.25624   0.05223   0.18329   0.01267  Uiso   1.00
O111   O     0.75624   0.55223   0.18329   0.01267  Uiso   1.00
O112   O     0.75624   0.05223   0.68329   0.01267  Uiso   1.00
O113   O     0.31671   0.25624   0.44777   0.01267  Uiso   1.00
O114   O     0.31671   0.75624   0.94777   0.01267  Uiso   1.00
O115   O     0.81671   0.25624   0.94777   0.01267  Uiso   1.00
O116   O     0.81671   0.75624   0.44777   0.01267  Uiso   1.00
O117   O     0.31671   0.74376   0.55223   0.01267  Uiso   1.00
O118   O     0.31671   0.24376   0.05223   0.01267  Uiso   1.00
O119   O     0.81671   0.74376   0.05223   0.01267  Uiso   1.00
O120   O     0.81671   0.24376   0.55223   0.01267  Uiso   1.00
O121   O     0.68329   0.74376   0.44777   0.01267  Uiso   1.00
O122   O     0.68329   0.24376   0.94777   0.01267  Uiso   1.00
O123   O     0.18329   0.74376   0.94777   0.01267  Uiso   1.00
O124   O     0.18329   0.24376   0.44777   0.01267  Uiso   1.00
O125   O     0.68329   0.25624   0.55223   0.01267  Uiso   1.00
O126   O     0.68329   0.75624   0.05223   0.01267  Uiso   1.00
O127   O     0.18329   0.25624   0.05223   0.01267  Uiso   1.00
O128   O     0.18329   0.75624   0.55223   0.01267  Uiso   1.00
O129   O     0.44777   0.31671   0.25624   0.01267  Uiso   1.00
O130   O     0.44777   0.81671   0.75624   0.01267  Uiso   1.00
O131   O     0.94777   0.31671   0.75624   0.01267  Uiso   1.00
O132   O     0.94777   0.81671   0.25624   0.01267  Uiso   1.00
O133   O     0.55223   0.31671   0.74376   0.01267  Uiso   1.00
O134   O     0.55223   0.81671   0.24376   0.01267  Uiso   1.00
O135   O     0.05223   0.31671   0.24376   0.01267  Uiso   1.00
O136   O     0.05223   0.81671   0.74376   0.01267  Uiso   1.00
O137   O     0.44777   0.68329   0.74376   0.01267  Uiso   1.00
O138   O     0.44777   0.18329   0.24376   0.01267  Uiso   1.00
O139   O     0.94777   0.68329   0.24376   0.01267  Uiso   1.00
O140   O     0.94777   0.18329   0.74376   0.01267  Uiso   1.00
O141   O     0.55223   0.68329   0.25624   0.01267  Uiso   1.00
O142   O     0.55223   0.18329   0.75624   0.01267  Uiso   1.00
O143   O     0.05223   0.68329   0.75624   0.01267  Uiso   1.00
O144   O     0.05223   0.18329   0.25624   0.01267  Uiso   1.00
O145   O     0.44777   0.25624   0.68329   0.01267  Uiso   1.00
O146   O     0.44777   0.75624   0.18329   0.01267  Uiso   1.00
O147   O     0.94777   0.25624   0.18329   0.01267  Uiso   1.00
O148   O     0.94777   0.75624   0.68329   0.01267  Uiso   1.00
O149   O     0.55223   0.74376   0.68329   0.01267  Uiso   1.00
O150   O     0.55223   0.24376   0.18329   0.01267  Uiso   1.00
O151   O     0.05223   0.74376   0.18329   0.01267  Uiso   1.00
O152   O     0.05223   0.24376   0.68329   0.01267  Uiso   1.00
O153   O     0.44777   0.74376   0.31671   0.01267  Uiso   1.00
O154   O     0.44777   0.24376   0.81671   0.01267  Uiso   1.00
O155   O     0.94777   0.74376   0.81671   0.01267  Uiso   1.00
O156   O     0.94777   0.24376   0.31671   0.01267  Uiso   1.00
O157   O     0.55223   0.25624   0.31671   0.01267  Uiso   1.00
O158   O     0.55223   0.75624   0.81671   0.01267  Uiso   1.00
O159   O     0.05223   0.25624   0.81671   0.01267  Uiso   1.00
O160   O     0.05223   0.75624   0.31671   0.01267  Uiso   1.00
O161   O     0.25624   0.31671   0.55223   0.01267  Uiso   1.00
O162   O     0.25624   0.81671   0.05223   0.01267  Uiso   1.00
O163   O     0.75624   0.31671   0.05223   0.01267  Uiso   1.00
O164   O     0.75624   0.81671   0.55223   0.01267  Uiso   1.00
O165   O     0.74376   0.31671   0.44777   0.01267  Uiso   1.00
O166   O     0.74376   0.81671   0.94777   0.01267  Uiso   1.00
O167   O     0.24376   0.31671   0.94777   0.01267  Uiso   1.00
O168   O     0.24376   0.81671   0.44777   0.01267  Uiso   1.00
O169   O     0.74376   0.68329   0.55223   0.01267  Uiso   1.00
O170   O     0.74376   0.18329   0.05223   0.01267  Uiso   1.00
O171   O     0.24376   0.68329   0.05223   0.01267  Uiso   1.00
O172   O     0.24376   0.18329   0.55223   0.01267  Uiso   1.00
O173   O     0.25624   0.68329   0.44777   0.01267  Uiso   1.00
O174   O     0.25624   0.18329   0.94777   0.01267  Uiso   1.00
O175   O     0.75624   0.68329   0.94777   0.01267  Uiso   1.00
O176   O     0.75624   0.18329   0.44777   0.01267  Uiso   1.00
O177   O     0.31671   0.44777   0.74376   0.01267  Uiso   1.00
O178   O     0.31671   0.94777   0.24376   0.01267  Uiso   1.00
O179   O     0.81671   0.44777   0.24376   0.01267  Uiso   1.00
O180   O     0.81671   0.94777   0.74376   0.01267  Uiso   1.00
O181   O     0.31671   0.55223   0.25624   0.01267  Uiso   1.00
O182   O     0.31671   0.05223   0.75624   0.01267  Uiso   1.00
O183   O     0.81671   0.55223   0.75624   0.01267  Uiso   1.00
O184   O     0.81671   0.05223   0.25624   0.01267  Uiso   1.00
O185   O     0.68329   0.44777   0.25624   0.01267  Uiso   1.00
O186   O     0.68329   0.94777   0.75624   0.01267  Uiso   1.00
O187   O     0.18329   0.44777   0.75624   0.01267  Uiso   1.00
O188   O     0.18329   0.94777   0.25624   0.01267  Uiso   1.00
O189   O     0.68329   0.55223   0.74376   0.01267  Uiso   1.00
O190   O     0.68329   0.05223   0.24376   0.01267  Uiso   1.00
O191   O     0.18329   0.55223   0.24376   0.01267  Uiso   1.00
O192   O     0.18329   0.05223   0.74376   0.01267  Uiso   1.00
Cu193  Cu    0.28355   0.50000   0.21645   0.01267  Uiso   1.00
Cu194  Cu    0.28355   0.00000   0.71645   0.01267  Uiso   1.00
Cu195  Cu    0.71645   0.50000   0.21645   0.01267  Uiso   1.00
Cu196  Cu    0.71645   0.00000   0.71645   0.01267  Uiso   1.00
Cu197  Cu    0.71645   0.50000   0.78355   0.01267  Uiso   1.00
Cu198  Cu    0.71645  -0.00000   0.28355   0.01267  Uiso   1.00
Cu199  Cu    0.28355   0.50000   0.78355   0.01267  Uiso   1.00
Cu200  Cu    0.28355   0.00000   0.28355   0.01267  Uiso   1.00
Cu201  Cu    0.21645   0.28355   0.50000   0.01267  Uiso   1.00
Cu202  Cu    0.21645   0.78355   0.00000   0.01267  Uiso   1.00
Cu203  Cu    0.21645   0.71645   0.50000   0.01267  Uiso   1.00
Cu204  Cu    0.21645   0.21645   0.00000   0.01267  Uiso   1.00
Cu205  Cu    0.78355   0.71645   0.50000   0.01267  Uiso   1.00
Cu206  Cu    0.78355   0.21645   0.00000   0.01267  Uiso   1.00
Cu207  Cu    0.78355   0.28355   0.50000   0.01267  Uiso   1.00
Cu208  Cu    0.78355   0.78355   0.00000   0.01267  Uiso   1.00
Cu209  Cu    0.50000   0.21645   0.28355   0.01267  Uiso   1.00
Cu210  Cu   -0.00000   0.21645   0.78355   0.01267  Uiso   1.00
Cu211  Cu    0.50000   0.21645   0.71645   0.01267  Uiso   1.00
Cu212  Cu    0.00000   0.21645   0.21645   0.01267  Uiso   1.00
Cu213  Cu    0.50000   0.78355   0.71645   0.01267  Uiso   1.00
Cu214  Cu   -0.00000   0.78355   0.21645   0.01267  Uiso   1.00
Cu215  Cu    0.50000   0.78355   0.28355   0.01267  Uiso   1.00
Cu216  Cu   -0.00000   0.78355   0.78355   0.01267  Uiso   1.00
Cu217  Cu    0.50000   0.28355   0.78355   0.01267  Uiso   1.00
Cu218  Cu   -0.00000   0.28355   0.28355   0.01267  Uiso   1.00
Cu219  Cu    0.50000   0.71645   0.78355   0.01267  Uiso   1.00
Cu220  Cu    0.00000   0.71645   0.28355   0.01267  Uiso   1.00
Cu221  Cu    0.50000   0.71645   0.21645   0.01267  Uiso   1.00
Cu222  Cu   -0.00000   0.71645   0.71645   0.01267  Uiso   1.00
Cu223  Cu    0.50000   0.28355   0.21645   0.01267  Uiso   1.00
Cu224  Cu   -0.00000   0.28355   0.71645   0.01267  Uiso   1.00
Cu225  Cu    0.28355   0.21645   0.50000   0.01267  Uiso   1.00
Cu226  Cu    0.28355   0.71645   0.00000   0.01267  Uiso   1.00
Cu227  Cu    0.71645   0.21645   0.50000   0.01267  Uiso   1.00
Cu228  Cu    0.71645   0.71645   0.00000   0.01267  Uiso   1.00
Cu229  Cu    0.71645   0.78355   0.50000   0.01267  Uiso   1.00
Cu230  Cu    0.71645   0.28355   0.00000   0.01267  Uiso   1.00
Cu231  Cu    0.28355   0.78355   0.50000   0.01267  Uiso   1.00
Cu232  Cu    0.28355   0.28355   0.00000   0.01267  Uiso   1.00
Cu233  Cu    0.21645   0.50000   0.71645   0.01267  Uiso   1.00
Cu234  Cu    0.21645   0.00000   0.21645   0.01267  Uiso   1.00
Cu235  Cu    0.21645   0.50000   0.28355   0.01267  Uiso   1.00
Cu236  Cu    0.21645   0.00000   0.78355   0.01267  Uiso   1.00
Cu237  Cu    0.78355   0.50000   0.28355   0.01267  Uiso   1.00
Cu238  Cu    0.78355  -0.00000   0.78355   0.01267  Uiso   1.00
Cu239  Cu    0.78355   0.50000   0.71645   0.01267  Uiso   1.00
Cu240  Cu    0.78355   0.00000   0.21645   0.01267  Uiso   1.00
H241   H     0.62030   0.62030   0.72940   0.01267  Uiso   1.00
C242   C     0.63515   0.63515   0.69998   0.01267  Uiso   1.00
H243   H     0.62030   0.12030   0.22940   0.01267  Uiso   1.00
C244   C     0.63515   0.13515   0.19998   0.01267  Uiso   1.00
H245   H     0.12030   0.62030   0.22940   0.01267  Uiso   1.00
C246   C     0.13515   0.63515   0.19998   0.01267  Uiso   1.00
H247   H     0.12030   0.12030   0.72940   0.01267  Uiso   1.00
C248   C     0.13515   0.13515   0.69998   0.01267  Uiso   1.00
H249   H     0.37970   0.37970   0.72940   0.01267  Uiso   1.00
C250   C     0.36485   0.36485   0.69998   0.01267  Uiso   1.00
H251   H     0.37970   0.87970   0.22940   0.01267  Uiso   1.00
C252   C     0.36485   0.86485   0.19998   0.01267  Uiso   1.00
H253   H     0.87970   0.37970   0.22940   0.01267  Uiso   1.00
C254   C     0.86485   0.36485   0.19998   0.01267  Uiso   1.00
H255   H     0.87970   0.87970   0.72940   0.01267  Uiso   1.00
C256   C     0.86485   0.86485   0.69998   0.01267  Uiso   1.00
H257   H     0.37970   0.62030   0.27060   0.01267  Uiso   1.00
C258   C     0.36485   0.63515   0.30002   0.01267  Uiso   1.00
H259   H     0.37970   0.12030   0.77060   0.01267  Uiso   1.00
C260   C     0.36485   0.13515   0.80002   0.01267  Uiso   1.00
H261   H     0.87970   0.62030   0.77060   0.01267  Uiso   1.00
C262   C     0.86485   0.63515   0.80002   0.01267  Uiso   1.00
H263   H     0.87970   0.12030   0.27060   0.01267  Uiso   1.00
C264   C     0.86485   0.13515   0.30002   0.01267  Uiso   1.00
H265   H     0.62030   0.37970   0.27060   0.01267  Uiso   1.00
C266   C     0.63515   0.36485   0.30002   0.01267  Uiso   1.00
H267   H     0.62030   0.87970   0.77060   0.01267  Uiso   1.00
C268   C     0.63515   0.86485   0.80002   0.01267  Uiso   1.00
H269   H     0.12030   0.37970   0.77060   0.01267  Uiso   1.00
C270   C     0.13515   0.36485   0.80002   0.01267  Uiso   1.00
H271   H     0.12030   0.87970   0.27060   0.01267  Uiso   1.00
C272   C     0.13515   0.86485   0.30002   0.01267  Uiso   1.00
H273   H     0.72940   0.62030   0.62030   0.01267  Uiso   1.00
C274   C     0.69998   0.63515   0.63515   0.01267  Uiso   1.00
H275   H     0.72940   0.12030   0.12030   0.01267  Uiso   1.00
C276   C     0.69998   0.13515   0.13515   0.01267  Uiso   1.00
H277   H     0.22940   0.62030   0.12030   0.01267  Uiso   1.00
C278   C     0.19998   0.63515   0.13515   0.01267  Uiso   1.00
H279   H     0.22940   0.12030   0.62030   0.01267  Uiso   1.00
C280   C     0.19998   0.13515   0.63515   0.01267  Uiso   1.00
H281   H     0.72940   0.37970   0.37970   0.01267  Uiso   1.00
C282   C     0.69998   0.36485   0.36485   0.01267  Uiso   1.00
H283   H     0.72940   0.87970   0.87970   0.01267  Uiso   1.00
C284   C     0.69998   0.86485   0.86485   0.01267  Uiso   1.00
H285   H     0.22940   0.37970   0.87970   0.01267  Uiso   1.00
C286   C     0.19998   0.36485   0.86485   0.01267  Uiso   1.00
H287   H     0.22940   0.87970   0.37970   0.01267  Uiso   1.00
C288   C     0.19998   0.86485   0.36485   0.01267  Uiso   1.00
H289   H     0.27060   0.37970   0.62030   0.01267  Uiso   1.00
C290   C     0.30002   0.36485   0.63515   0.01267  Uiso   1.00
H291   H     0.27060   0.87970   0.12030   0.01267  Uiso   1.00
C292   C     0.30002   0.86485   0.13515   0.01267  Uiso   1.00
H293   H     0.77060   0.37970   0.12030   0.01267  Uiso   1.00
C294   C     0.80002   0.36485   0.13515   0.01267  Uiso   1.00
H295   H     0.77060   0.87970   0.62030   0.01267  Uiso   1.00
C296   C     0.80002   0.86485   0.63515   0.01267  Uiso   1.00
H297   H     0.27060   0.62030   0.37970   0.01267  Uiso   1.00
C298   C     0.30002   0.63515   0.36485   0.01267  Uiso   1.00
H299   H     0.27060   0.12030   0.87970   0.01267  Uiso   1.00
C300   C     0.30002   0.13515   0.86485   0.01267  Uiso   1.00
H301   H     0.77060   0.62030   0.87970   0.01267  Uiso   1.00
C302   C     0.80002   0.63515   0.86485   0.01267  Uiso   1.00
H303   H     0.77060   0.12030   0.37970   0.01267  Uiso   1.00
C304   C     0.80002   0.13515   0.36485   0.01267  Uiso   1.00
H305   H     0.62030   0.72940   0.62030   0.01267  Uiso   1.00
C306   C     0.63515   0.69998   0.63515   0.01267  Uiso   1.00
H307   H     0.62030   0.22940   0.12030   0.01267  Uiso   1.00
C308   C     0.63515   0.19998   0.13515   0.01267  Uiso   1.00
H309   H     0.12030   0.72940   0.12030   0.01267  Uiso   1.00
C310   C     0.13515   0.69998   0.13515   0.01267  Uiso   1.00
H311   H     0.12030   0.22940   0.62030   0.01267  Uiso   1.00
C312   C     0.13515   0.19998   0.63515   0.01267  Uiso   1.00
H313   H     0.37970   0.72940   0.37970   0.01267  Uiso   1.00
C314   C     0.36485   0.69998   0.36485   0.01267  Uiso   1.00
H315   H     0.37970   0.22940   0.87970   0.01267  Uiso   1.00
C316   C     0.36485   0.19998   0.86485   0.01267  Uiso   1.00
H317   H     0.87970   0.72940   0.87970   0.01267  Uiso   1.00
C318   C     0.86485   0.69998   0.86485   0.01267  Uiso   1.00
H319   H     0.87970   0.22940   0.37970   0.01267  Uiso   1.00
C320   C     0.86485   0.19998   0.36485   0.01267  Uiso   1.00
H321   H     0.62030   0.27060   0.37970   0.01267  Uiso   1.00
C322   C     0.63515   0.30002   0.36485   0.01267  Uiso   1.00
H323   H     0.62030   0.77060   0.87970   0.01267  Uiso   1.00
C324   C     0.63515   0.80002   0.86485   0.01267  Uiso   1.00
H325   H     0.12030   0.27060   0.87970   0.01267  Uiso   1.00
C326   C     0.13515   0.30002   0.86485   0.01267  Uiso   1.00
H327   H     0.12030   0.77060   0.37970   0.01267  Uiso   1.00
C328   C     0.13515   0.80002   0.36485   0.01267  Uiso   1.00
H329   H     0.37970   0.27060   0.62030   0.01267  Uiso   1.00
C330   C     0.36485   0.30002   0.63515   0.01267  Uiso   1.00
H331   H     0.37970   0.77060   0.12030   0.01267  Uiso   1.00
C332   C     0.36485   0.80002   0.13515   0.01267  Uiso   1.00
H333   H     0.87970   0.27060   0.12030   0.01267  Uiso   1.00
C334   C     0.86485   0.30002   0.13515   0.01267  Uiso   1.00
H335   H     0.87970   0.77060   0.62030   0.01267  Uiso   1.00
C336   C     0.86485   0.80002   0.63515   0.01267  Uiso   1.00
H337   H     0.62030   0.62030   0.27060   0.01267  Uiso   1.00
C338   C     0.63515   0.63515   0.30002   0.01267  Uiso   1.00
H339   H     0.62030   0.12030   0.77060   0.01267  Uiso   1.00
C340   C     0.63515   0.13515   0.80002   0.01267  Uiso   1.00
H341   H     0.12030   0.62030   0.77060   0.01267  Uiso   1.00
C342   C     0.13515   0.63515   0.80002   0.01267  Uiso   1.00
H343   H     0.12030   0.12030   0.27060   0.01267  Uiso   1.00
C344   C     0.13515   0.13515   0.30002   0.01267  Uiso   1.00
H345   H     0.37970   0.37970   0.27060   0.01267  Uiso   1.00
C346   C     0.36485   0.36485   0.30002   0.01267  Uiso   1.00
H347   H     0.37970   0.87970   0.77060   0.01267  Uiso   1.00
C348   C     0.36485   0.86485   0.80002   0.01267  Uiso   1.00
H349   H     0.87970   0.37970   0.77060   0.01267  Uiso   1.00
C350   C     0.86485   0.36485   0.80002   0.01267  Uiso   1.00
H351   H     0.87970   0.87970   0.27060   0.01267  Uiso   1.00
C352   C     0.86485   0.86485   0.30002   0.01267  Uiso   1.00
H353   H     0.62030   0.37970   0.72940   0.01267  Uiso   1.00
C354   C     0.63515   0.36485   0.69998   0.01267  Uiso   1.00
H355   H     0.62030   0.87970   0.22940   0.01267  Uiso   1.00
C356   C     0.63515   0.86485   0.19998   0.01267  Uiso   1.00
H357   H     0.12030   0.37970   0.22940   0.01267  Uiso   1.00
C358   C     0.13515   0.36485   0.19998   0.01267  Uiso   1.00
H359   H     0.12030   0.87970   0.72940   0.01267  Uiso   1.00
C360   C     0.13515   0.86485   0.69998   0.01267  Uiso   1.00
H361   H     0.37970   0.62030   0.72940   0.01267  Uiso   1.00
C362   C     0.36485   0.63515   0.69998   0.01267  Uiso   1.00
H363   H     0.37970   0.12030   0.22940   0.01267  Uiso   1.00
C364   C     0.36485   0.13515   0.19998   0.01267  Uiso   1.00
H365   H     0.87970   0.62030   0.22940   0.01267  Uiso   1.00
C366   C     0.86485   0.63515   0.19998   0.01267  Uiso   1.00
H367   H     0.87970   0.12030   0.72940   0.01267  Uiso   1.00
C368   C     0.86485   0.13515   0.69998   0.01267  Uiso   1.00
H369   H     0.62030   0.72940   0.37970   0.01267  Uiso   1.00
C370   C     0.63515   0.69998   0.36485   0.01267  Uiso   1.00
H371   H     0.62030   0.22940   0.87970   0.01267  Uiso   1.00
C372   C     0.63515   0.19998   0.86485   0.01267  Uiso   1.00
H373   H     0.12030   0.72940   0.87970   0.01267  Uiso   1.00
C374   C     0.13515   0.69998   0.86485   0.01267  Uiso   1.00
H375   H     0.12030   0.22940   0.37970   0.01267  Uiso   1.00
C376   C     0.13515   0.19998   0.36485   0.01267  Uiso   1.00
H377   H     0.37970   0.72940   0.62030   0.01267  Uiso   1.00
C378   C     0.36485   0.69998   0.63515   0.01267  Uiso   1.00
H379   H     0.37970   0.22940   0.12030   0.01267  Uiso   1.00
C380   C     0.36485   0.19998   0.13515   0.01267  Uiso   1.00
H381   H     0.87970   0.72940   0.12030   0.01267  Uiso   1.00
C382   C     0.86485   0.69998   0.13515   0.01267  Uiso   1.00
H383   H     0.87970   0.22940   0.62030   0.01267  Uiso   1.00
C384   C     0.86485   0.19998   0.63515   0.01267  Uiso   1.00
H385   H     0.37970   0.27060   0.37970   0.01267  Uiso   1.00
C386   C     0.36485   0.30002   0.36485   0.01267  Uiso   1.00
H387   H     0.37970   0.77060   0.87970   0.01267  Uiso   1.00
C388   C     0.36485   0.80002   0.86485   0.01267  Uiso   1.00
H389   H     0.87970   0.27060   0.87970   0.01267  Uiso   1.00
C390   C     0.86485   0.30002   0.86485   0.01267  Uiso   1.00
H391   H     0.87970   0.77060   0.37970   0.01267  Uiso   1.00
C392   C     0.86485   0.80002   0.36485   0.01267  Uiso   1.00
H393   H     0.62030   0.27060   0.62030   0.01267  Uiso   1.00
C394   C     0.63515   0.30002   0.63515   0.01267  Uiso   1.00
H395   H     0.62030   0.77060   0.12030   0.01267  Uiso   1.00
C396   C     0.63515   0.80002   0.13515   0.01267  Uiso   1.00
H397   H     0.12030   0.27060   0.12030   0.01267  Uiso   1.00
C398   C     0.13515   0.30002   0.13515   0.01267  Uiso   1.00
H399   H     0.12030   0.77060   0.62030   0.01267  Uiso   1.00
C400   C     0.13515   0.80002   0.63515   0.01267  Uiso   1.00
H401   H     0.72940   0.62030   0.37970   0.01267  Uiso   1.00
C402   C     0.69998   0.63515   0.36485   0.01267  Uiso   1.00
H403   H     0.72940   0.12030   0.87970   0.01267  Uiso   1.00
C404   C     0.69998   0.13515   0.86485   0.01267  Uiso   1.00
H405   H     0.22940   0.62030   0.87970   0.01267  Uiso   1.00
C406   C     0.19998   0.63515   0.86485   0.01267  Uiso   1.00
H407   H     0.22940   0.12030   0.37970   0.01267  Uiso   1.00
C408   C     0.19998   0.13515   0.36485   0.01267  Uiso   1.00
H409   H     0.72940   0.37970   0.62030   0.01267  Uiso   1.00
C410   C     0.69998   0.36485   0.63515   0.01267  Uiso   1.00
H411   H     0.72940   0.87970   0.12030   0.01267  Uiso   1.00
C412   C     0.69998   0.86485   0.13515   0.01267  Uiso   1.00
H413   H     0.22940   0.37970   0.12030   0.01267  Uiso   1.00
C414   C     0.19998   0.36485   0.13515   0.01267  Uiso   1.00
H415   H     0.22940   0.87970   0.62030   0.01267  Uiso   1.00
C416   C     0.19998   0.86485   0.63515   0.01267  Uiso   1.00
H417   H     0.27060   0.62030   0.62030   0.01267  Uiso   1.00
C418   C     0.30002   0.63515   0.63515   0.01267  Uiso   1.00
H419   H     0.27060   0.12030   0.12030   0.01267  Uiso   1.00
C420   C     0.30002   0.13515   0.13515   0.01267  Uiso   1.00
H421   H     0.77060   0.62030   0.12030   0.01267  Uiso   1.00
C422   C     0.80002   0.63515   0.13515   0.01267  Uiso   1.00
H423   H     0.77060   0.12030   0.62030   0.01267  Uiso   1.00
C424   C     0.80002   0.13515   0.63515   0.01267  Uiso   1.00
H425   H     0.27060   0.37970   0.37970   0.01267  Uiso   1.00
C426   C     0.30002   0.36485   0.36485   0.01267  Uiso   1.00
H427   H     0.27060   0.87970   0.87970   0.01267  Uiso   1.00
C428   C     0.30002   0.86485   0.86485   0.01267  Uiso   1.00
H429   H     0.77060   0.37970   0.87970   0.01267  Uiso   1.00
C430   C     0.80002   0.36485   0.86485   0.01267  Uiso   1.00
H431   H     0.77060   0.87970   0.37970   0.01267  Uiso   1.00
C432   C     0.80002   0.86485   0.36485   0.01267  Uiso   1.00
C433   C     0.67849   0.61358   0.67849   0.01267  Uiso   1.00
C434   C     0.70353   0.56901   0.70353   0.01267  Uiso   1.00
C435   C     0.67849   0.11358   0.17849   0.01267  Uiso   1.00
C436   C     0.70353   0.06901   0.20353   0.01267  Uiso   1.00
C437   C     0.17849   0.61358   0.17849   0.01267  Uiso   1.00
C438   C     0.20353   0.56901   0.20353   0.01267  Uiso   1.00
C439   C     0.17849   0.11358   0.67849   0.01267  Uiso   1.00
C440   C     0.20353   0.06901   0.70353   0.01267  Uiso   1.00
C441   C     0.32151   0.38642   0.67849   0.01267  Uiso   1.00
C442   C     0.29647   0.43099   0.70353   0.01267  Uiso   1.00
C443   C     0.32151   0.88642   0.17849   0.01267  Uiso   1.00
C444   C     0.29647   0.93099   0.20353   0.01267  Uiso   1.00
C445   C     0.82151   0.38642   0.17849   0.01267  Uiso   1.00
C446   C     0.79647   0.43099   0.20353   0.01267  Uiso   1.00
C447   C     0.82151   0.88642   0.67849   0.01267  Uiso   1.00
C448   C     0.79647   0.93099   0.70353   0.01267  Uiso   1.00
C449   C     0.32151   0.61358   0.32151   0.01267  Uiso   1.00
C450   C     0.29647   0.56901   0.29647   0.01267  Uiso   1.00
C451   C     0.32151   0.11358   0.82151   0.01267  Uiso   1.00
C452   C     0.29647   0.06901   0.79647   0.01267  Uiso   1.00
C453   C     0.82151   0.61358   0.82151   0.01267  Uiso   1.00
C454   C     0.79647   0.56901   0.79647   0.01267  Uiso   1.00
C455   C     0.82151   0.11358   0.32151   0.01267  Uiso   1.00
C456   C     0.79647   0.06901   0.29647   0.01267  Uiso   1.00
C457   C     0.67849   0.38642   0.32151   0.01267  Uiso   1.00
C458   C     0.70353   0.43099   0.29647   0.01267  Uiso   1.00
C459   C     0.67849   0.88642   0.82151   0.01267  Uiso   1.00
C460   C     0.70353   0.93099   0.79647   0.01267  Uiso   1.00
C461   C     0.17849   0.38642   0.82151   0.01267  Uiso   1.00
C462   C     0.20353   0.43099   0.79647   0.01267  Uiso   1.00
C463   C     0.17849   0.88642   0.32151   0.01267  Uiso   1.00
C464   C     0.20353   0.93099   0.29647   0.01267  Uiso   1.00
C465   C     0.67849   0.67849   0.61358   0.01267  Uiso   1.00
C466   C     0.70353   0.70353   0.56901   0.01267  Uiso   1.00
C467   C     0.67849   0.17849   0.11358   0.01267  Uiso   1.00
C468   C     0.70353   0.20353   0.06901   0.01267  Uiso   1.00
C469   C     0.17849   0.67849   0.11358   0.01267  Uiso   1.00
C470   C     0.20353   0.70353   0.06901   0.01267  Uiso   1.00
C471   C     0.17849   0.17849   0.61358   0.01267  Uiso   1.00
C472   C     0.20353   0.20353   0.56901   0.01267  Uiso   1.00
C473   C     0.67849   0.32151   0.38642   0.01267  Uiso   1.00
C474   C     0.70353   0.29647   0.43099   0.01267  Uiso   1.00
C475   C     0.67849   0.82151   0.88642   0.01267  Uiso   1.00
C476   C     0.70353   0.79647   0.93099   0.01267  Uiso   1.00
C477   C     0.17849   0.32151   0.88642   0.01267  Uiso   1.00
C478   C     0.20353   0.29647   0.93099   0.01267  Uiso   1.00
C479   C     0.17849   0.82151   0.38642   0.01267  Uiso   1.00
C480   C     0.20353   0.79647   0.43099   0.01267  Uiso   1.00
C481   C     0.32151   0.32151   0.61358   0.01267  Uiso   1.00
C482   C     0.29647   0.29647   0.56901   0.01267  Uiso   1.00
C483   C     0.32151   0.82151   0.11358   0.01267  Uiso   1.00
C484   C     0.29647   0.79647   0.06901   0.01267  Uiso   1.00
C485   C     0.82151   0.32151   0.11358   0.01267  Uiso   1.00
C486   C     0.79647   0.29647   0.06901   0.01267  Uiso   1.00
C487   C     0.82151   0.82151   0.61358   0.01267  Uiso   1.00
C488   C     0.79647   0.79647   0.56901   0.01267  Uiso   1.00
C489   C     0.32151   0.67849   0.38642   0.01267  Uiso   1.00
C490   C     0.29647   0.70353   0.43099   0.01267  Uiso   1.00
C491   C     0.32151   0.17849   0.88642   0.01267  Uiso   1.00
C492   C     0.29647   0.20353   0.93099   0.01267  Uiso   1.00
C493   C     0.82151   0.67849   0.88642   0.01267  Uiso   1.00
C494   C     0.79647   0.70353   0.93099   0.01267  Uiso   1.00
C495   C     0.82151   0.17849   0.38642   0.01267  Uiso   1.00
C496   C     0.79647   0.20353   0.43099   0.01267  Uiso   1.00
C497   C     0.61358   0.67849   0.67849   0.01267  Uiso   1.00
C498   C     0.56901   0.70353   0.70353   0.01267  Uiso   1.00
C499   C     0.61358   0.17849   0.17849   0.01267  Uiso   1.00
C500   C     0.56901   0.20353   0.20353   0.01267  Uiso   1.00
C501   C     0.11358   0.67849   0.17849   0.01267  Uiso   1.00
C502   C     0.06901   0.70353   0.20353   0.01267  Uiso   1.00
C503   C     0.11358   0.17849   0.67849   0.01267  Uiso   1.00
C504   C     0.06901   0.20353   0.70353   0.01267  Uiso   1.00
C505   C     0.38642   0.67849   0.32151   0.01267  Uiso   1.00
C506   C     0.43099   0.70353   0.29647   0.01267  Uiso   1.00
C507   C     0.38642   0.17849   0.82151   0.01267  Uiso   1.00
C508   C     0.43099   0.20353   0.79647   0.01267  Uiso   1.00
C509   C     0.88642   0.67849   0.82151   0.01267  Uiso   1.00
C510   C     0.93099   0.70353   0.79647   0.01267  Uiso   1.00
C511   C     0.88642   0.17849   0.32151   0.01267  Uiso   1.00
C512   C     0.93099   0.20353   0.29647   0.01267  Uiso   1.00
C513   C     0.61358   0.32151   0.32151   0.01267  Uiso   1.00
C514   C     0.56901   0.29647   0.29647   0.01267  Uiso   1.00
C515   C     0.61358   0.82151   0.82151   0.01267  Uiso   1.00
C516   C     0.56901   0.79647   0.79647   0.01267  Uiso   1.00
C517   C     0.11358   0.32151   0.82151   0.01267  Uiso   1.00
C518   C     0.06901   0.29647   0.79647   0.01267  Uiso   1.00
C519   C     0.11358   0.82151   0.32151   0.01267  Uiso   1.00
C520   C     0.06901   0.79647   0.29647   0.01267  Uiso   1.00
C521   C     0.38642   0.32151   0.67849   0.01267  Uiso   1.00
C522   C     0.43099   0.29647   0.70353   0.01267  Uiso   1.00
C523   C     0.38642   0.82151   0.17849   0.01267  Uiso   1.00
C524   C     0.43099   0.79647   0.20353   0.01267  Uiso   1.00
C525   C     0.88642   0.32151   0.17849   0.01267  Uiso   1.00
C526   C     0.93099   0.29647   0.20353   0.01267  Uiso   1.00
C527   C     0.88642   0.82151   0.67849   0.01267  Uiso   1.00
C528   C     0.93099   0.79647   0.70353   0.01267  Uiso   1.00
C529   C     0.61358   0.67849   0.32151   0.01267  Uiso   1.00
C530   C     0.56901   0.70353   0.29647   0.01267  Uiso   1.00
C531   C     0.61358   0.17849   0.82151   0.01267  Uiso   1.00
C532   C     0.56901   0.20353   0.79647   0.01267  Uiso   1.00
C533   C     0.11358   0.67849   0.82151   0.01267  Uiso   1.00
C534   C     0.06901   0.70353   0.79647   0.01267  Uiso   1.00
C535   C     0.11358   0.17849   0.32151   0.01267  Uiso   1.00
C536   C     0.06901   0.20353   0.29647   0.01267  Uiso   1.00
C537   C     0.38642   0.32151   0.32151   0.01267  Uiso   1.00
C538   C     0.43099   0.29647   0.29647   0.01267  Uiso   1.00
C539   C     0.38642   0.82151   0.82151   0.01267  Uiso   1.00
C540   C     0.43099   0.79647   0.79647   0.01267  Uiso   1.00
C541   C     0.88642   0.32151   0.82151   0.01267  Uiso   1.00
C542   C     0.93099   0.29647   0.79647   0.01267  Uiso   1.00
C543   C     0.88642   0.82151   0.32151   0.01267  Uiso   1.00
C544   C     0.93099   0.79647   0.29647   0.01267  Uiso   1.00
C545   C     0.61358   0.32151   0.67849   0.01267  Uiso   1.00
C546   C     0.56901   0.29647   0.70353   0.01267  Uiso   1.00
C547   C     0.61358   0.82151   0.17849   0.01267  Uiso   1.00
C548   C     0.56901   0.79647   0.20353   0.01267  Uiso   1.00
C549   C     0.11358   0.32151   0.17849   0.01267  Uiso   1.00
C550   C     0.06901   0.29647   0.20353   0.01267  Uiso   1.00
C551   C     0.11358   0.82151   0.67849   0.01267  Uiso   1.00
C552   C     0.06901   0.79647   0.70353   0.01267  Uiso   1.00
C553   C     0.38642   0.67849   0.67849   0.01267  Uiso   1.00
C554   C     0.43099   0.70353   0.70353   0.01267  Uiso   1.00
C555   C     0.38642   0.17849   0.17849   0.01267  Uiso   1.00
C556   C     0.43099   0.20353   0.20353   0.01267  Uiso   1.00
C557   C     0.88642   0.67849   0.17849   0.01267  Uiso   1.00
C558   C     0.93099   0.70353   0.20353   0.01267  Uiso   1.00
C559   C     0.88642   0.17849   0.67849   0.01267  Uiso   1.00
C560   C     0.93099   0.20353   0.70353   0.01267  Uiso   1.00
C561   C     0.67849   0.67849   0.38642   0.01267  Uiso   1.00
C562   C     0.70353   0.70353   0.43099   0.01267  Uiso   1.00
C563   C     0.67849   0.17849   0.88642   0.01267  Uiso   1.00
C564   C     0.70353   0.20353   0.93099   0.01267  Uiso   1.00
C565   C     0.17849   0.67849   0.88642   0.01267  Uiso   1.00
C566   C     0.20353   0.70353   0.93099   0.01267  Uiso   1.00
C567   C     0.17849   0.17849   0.38642   0.01267  Uiso   1.00
C568   C     0.20353   0.20353   0.43099   0.01267  Uiso   1.00
C569   C     0.32151   0.67849   0.61358   0.01267  Uiso   1.00
C570   C     0.29647   0.70353   0.56901   0.01267  Uiso   1.00
C571   C     0.32151   0.17849   0.11358   0.01267  Uiso   1.00
C572   C     0.29647   0.20353   0.06901   0.01267  Uiso   1.00
C573   C     0.82151   0.67849   0.11358   0.01267  Uiso   1.00
C574   C     0.79647   0.70353   0.06901   0.01267  Uiso   1.00
C575   C     0.82151   0.17849   0.61358   0.01267  Uiso   1.00
C576   C     0.79647   0.20353   0.56901   0.01267  Uiso   1.00
C577   C     0.32151   0.32151   0.38642   0.01267  Uiso   1.00
C578   C     0.29647   0.29647   0.43099   0.01267  Uiso   1.00
C579   C     0.32151   0.82151   0.88642   0.01267  Uiso   1.00
C580   C     0.29647   0.79647   0.93099   0.01267  Uiso   1.00
C581   C     0.82151   0.32151   0.88642   0.01267  Uiso   1.00
C582   C     0.79647   0.29647   0.93099   0.01267  Uiso   1.00
C583   C     0.82151   0.82151   0.38642   0.01267  Uiso   1.00
C584   C     0.79647   0.79647   0.43099   0.01267  Uiso   1.00
C585   C     0.67849   0.32151   0.61358   0.01267  Uiso   1.00
C586   C     0.70353   0.29647   0.56901   0.01267  Uiso   1.00
C587   C     0.67849   0.82151   0.11358   0.01267  Uiso   1.00
C588   C     0.70353   0.79647   0.06901   0.01267  Uiso   1.00
C589   C     0.17849   0.32151   0.11358   0.01267  Uiso   1.00
C590   C     0.20353   0.29647   0.06901   0.01267  Uiso   1.00
C591   C     0.17849   0.82151   0.61358   0.01267  Uiso   1.00
C592   C     0.20353   0.79647   0.56901   0.01267  Uiso   1.00
C593   C     0.67849   0.61358   0.32151   0.01267  Uiso   1.00
C594   C     0.70353   0.56901   0.29647   0.01267  Uiso   1.00
C595   C     0.67849   0.11358   0.82151   0.01267  Uiso   1.00
C596   C     0.70353   0.06901   0.79647   0.01267  Uiso   1.00
C597   C     0.17849   0.61358   0.82151   0.01267  Uiso   1.00
C598   C     0.20353   0.56901   0.79647   0.01267  Uiso   1.00
C599   C     0.17849   0.11358   0.32151   0.01267  Uiso   1.00
C600   C     0.20353   0.06901   0.29647   0.01267  Uiso   1.00
C601   C     0.67849   0.38642   0.67849   0.01267  Uiso   1.00
C602   C     0.70353   0.43099   0.70353   0.01267  Uiso   1.00
C603   C     0.67849   0.88642   0.17849   0.01267  Uiso   1.00
C604   C     0.70353   0.93099   0.20353   0.01267  Uiso   1.00
C605   C     0.17849   0.38642   0.17849   0.01267  Uiso   1.00
C606   C     0.20353   0.43099   0.20353   0.01267  Uiso   1.00
C607   C     0.17849   0.88642   0.67849   0.01267  Uiso   1.00
C608   C     0.20353   0.93099   0.70353   0.01267  Uiso   1.00
C609   C     0.32151   0.61358   0.67849   0.01267  Uiso   1.00
C610   C     0.29647   0.56901   0.70353   0.01267  Uiso   1.00
C611   C     0.32151   0.11358   0.17849   0.01267  Uiso   1.00
C612   C     0.29647   0.06901   0.20353   0.01267  Uiso   1.00
C613   C     0.82151   0.61358   0.17849   0.01267  Uiso   1.00
C614   C     0.79647   0.56901   0.20353   0.01267  Uiso   1.00
C615   C     0.82151   0.11358   0.67849   0.01267  Uiso   1.00
C616   C     0.79647   0.06901   0.70353   0.01267  Uiso   1.00
C617   C     0.32151   0.38642   0.32151   0.01267  Uiso   1.00
C618   C     0.29647   0.43099   0.29647   0.01267  Uiso   1.00
C619   C     0.32151   0.88642   0.82151   0.01267  Uiso   1.00
C620   C     0.29647   0.93099   0.79647   0.01267  Uiso   1.00
C621   C     0.82151   0.38642   0.82151   0.01267  Uiso   1.00
C622   C     0.79647   0.43099   0.79647   0.01267  Uiso   1.00
C623   C     0.82151   0.88642   0.32151   0.01267  Uiso   1.00
C624   C     0.79647   0.93099   0.29647   0.01267  Uiso   1.00
loop_
_geom_bond_atom_site_label_1
_geom_bond_atom_site_label_2
_geom_bond_distance
_geom_bond_site_symmetry_2
_ccdc_geom_bond_type
O1     C434    1.263   .     D
O1     Cu239   1.933   .     S
O2     C436    1.263   .     D
O2     Cu240   1.933   .     S
O3     C438    1.263   .     D
O3     Cu193   1.933   .     S
O4     C440    1.263   .     D
O4     Cu194   1.933   .     S
O5     C442    1.263   .     D
O5     Cu233   1.933   .     S
O6     C444    1.263   .     D
O6     Cu234   1.933   1_565 S
O7     C446    1.263   .     D
O7     Cu195   1.933   .     S
O8     C448    1.263   .     D
O8     Cu196   1.933   1_565 S
O9     C450    1.263   .     D
O9     Cu235   1.933   .     S
O10    C452    1.263   .     D
O10    Cu236   1.933   .     S
O11    C454    1.263   .     D
O11    Cu197   1.933   .     S
O12    C456    1.263   .     D
O12    Cu198   1.933   .     S
O13    C458    1.263   .     D
O13    Cu237   1.933   .     S
O14    C460    1.263   .     D
O14    Cu238   1.933   1_565 S
O15    C462    1.263   .     D
O15    Cu199   1.933   .     S
O16    C464    1.263   .     D
O16    Cu200   1.933   1_565 S
O17    C466    1.263   .     D
O17    Cu229   1.933   .     S
O18    C468    1.263   .     D
O18    Cu230   1.933   .     S
O19    C470    1.263   .     D
O19    Cu202   1.933   .     S
O20    C472    1.263   .     D
O20    Cu201   1.933   .     S
O21    C474    1.263   .     D
O21    Cu227   1.933   .     S
O22    C476    1.263   .     D
O22    Cu228   1.933   1_556 S
O23    C478    1.263   .     D
O23    Cu204   1.933   1_556 S
O24    C480    1.263   .     D
O24    Cu203   1.933   .     S
O25    C482    1.263   .     D
O25    Cu225   1.933   .     S
O26    C484    1.263   .     D
O26    Cu226   1.933   .     S
O27    C486    1.263   .     D
O27    Cu206   1.933   .     S
O28    C488    1.263   .     D
O28    Cu205   1.933   .     S
O29    C490    1.263   .     D
O29    Cu231   1.933   .     S
O30    C492    1.263   .     D
O30    Cu232   1.933   1_556 S
O31    C494    1.263   .     D
O31    Cu208   1.933   1_556 S
O32    C496    1.263   .     D
O32    Cu207   1.933   .     S
O33    C498    1.263   .     D
O33    Cu219   1.933   .     S
O34    C500    1.263   .     D
O34    Cu209   1.933   .     S
O35    C502    1.263   .     D
O35    Cu220   1.933   .     S
O36    C504    1.263   .     D
O36    Cu210   1.933   .     S
O37    C506    1.263   .     D
O37    Cu221   1.933   .     S
O38    C508    1.263   .     D
O38    Cu211   1.933   .     S
O39    C510    1.263   .     D
O39    Cu222   1.933   1_655 S
O40    C512    1.263   .     D
O40    Cu212   1.933   1_655 S
O41    C514    1.263   .     D
O41    Cu223   1.933   .     S
O42    C516    1.263   .     D
O42    Cu213   1.933   .     S
O43    C518    1.263   .     D
O43    Cu224   1.933   .     S
O44    C520    1.263   .     D
O44    Cu214   1.933   .     S
O45    C522    1.263   .     D
O45    Cu217   1.933   .     S
O46    C524    1.263   .     D
O46    Cu215   1.933   .     S
O47    C526    1.263   .     D
O47    Cu218   1.933   1_655 S
O48    C528    1.263   .     D
O48    Cu216   1.933   1_655 S
O49    C530    1.263   .     D
O49    Cu215   1.933   .     S
O50    C532    1.263   .     D
O50    Cu217   1.933   .     S
O51    C534    1.263   .     D
O51    Cu216   1.933   .     S
O52    C536    1.263   .     D
O52    Cu218   1.933   .     S
O53    C538    1.263   .     D
O53    Cu209   1.933   .     S
O54    C540    1.263   .     D
O54    Cu219   1.933   .     S
O55    C542    1.263   .     D
O55    Cu210   1.933   1_655 S
O56    C544    1.263   .     D
O56    Cu220   1.933   1_655 S
O57    C546    1.263   .     D
O57    Cu211   1.933   .     S
O58    C548    1.263   .     D
O58    Cu221   1.933   .     S
O59    C550    1.263   .     D
O59    Cu212   1.933   .     S
O60    C552    1.263   .     D
O60    Cu222   1.933   .     S
O61    C554    1.263   .     D
O61    Cu213   1.933   .     S
O62    C556    1.263   .     D
O62    Cu223   1.933   .     S
O63    C558    1.263   .     D
O63    Cu214   1.933   1_655 S
O64    C560    1.263   .     D
O64    Cu224   1.933   1_655 S
O65    C562    1.263   .     D
O65    Cu205   1.933   .     S
O66    C564    1.263   .     D
O66    Cu206   1.933   1_556 S
O67    C566    1.263   .     D
O67    Cu226   1.933   1_556 S
O68    C568    1.263   .     D
O68    Cu225   1.933   .     S
O69    C570    1.263   .     D
O69    Cu203   1.933   .     S
O70    C572    1.263   .     D
O70    Cu204   1.933   .     S
O71    C574    1.263   .     D
O71    Cu228   1.933   .     S
O72    C576    1.263   .     D
O72    Cu227   1.933   .     S
O73    C578    1.263   .     D
O73    Cu201   1.933   .     S
O74    C580    1.263   .     D
O74    Cu202   1.933   1_556 S
O75    C582    1.263   .     D
O75    Cu230   1.933   1_556 S
O76    C584    1.263   .     D
O76    Cu229   1.933   .     S
O77    C586    1.263   .     D
O77    Cu207   1.933   .     S
O78    C588    1.263   .     D
O78    Cu208   1.933   .     S
O79    C590    1.263   .     D
O79    Cu232   1.933   .     S
O80    C592    1.263   .     D
O80    Cu231   1.933   .     S
O81    C594    1.263   .     D
O81    Cu195   1.933   .     S
O82    C596    1.263   .     D
O82    Cu196   1.933   .     S
O83    C598    1.263   .     D
O83    Cu233   1.933   .     S
O84    C600    1.263   .     D
O84    Cu234   1.933   .     S
O85    C602    1.263   .     D
O85    Cu197   1.933   .     S
O86    C604    1.263   .     D
O86    Cu198   1.933   1_565 S
O87    C606    1.263   .     D
O87    Cu235   1.933   .     S
O88    C608    1.263   .     D
O88    Cu236   1.933   1_565 S
O89    C610    1.263   .     D
O89    Cu199   1.933   .     S
O90    C612    1.263   .     D
O90    Cu200   1.933   .     S
O91    C614    1.263   .     D
O91    Cu237   1.933   .     S
O92    C616    1.263   .     D
O92    Cu238   1.933   .     S
O93    C618    1.263   .     D
O93    Cu193   1.933   .     S
O94    C620    1.263   .     D
O94    Cu194   1.933   1_565 S
O95    C622    1.263   .     D
O95    Cu239   1.933   .     S
O96    C624    1.263   .     D
O96    Cu240   1.933   1_565 S
O97    C618    1.263   .     D
O97    Cu235   1.933   .     S
O98    C620    1.263   .     D
O98    Cu236   1.933   1_565 S
O99    C622    1.263   .     D
O99    Cu197   1.933   .     S
O100   C624    1.263   .     D
O100   Cu198   1.933   1_565 S
O101   C594    1.263   .     D
O101   Cu237   1.933   .     S
O102   C596    1.263   .     D
O102   Cu238   1.933   .     S
O103   C598    1.263   .     D
O103   Cu199   1.933   .     S
O104   C600    1.263   .     D
O104   Cu200   1.933   .     S
O105   C602    1.263   .     D
O105   Cu239   1.933   .     S
O106   C604    1.263   .     D
O106   Cu240   1.933   1_565 S
O107   C606    1.263   .     D
O107   Cu193   1.933   .     S
O108   C608    1.263   .     D
O108   Cu194   1.933   1_565 S
O109   C610    1.263   .     D
O109   Cu233   1.933   .     S
O110   C612    1.263   .     D
O110   Cu234   1.933   .     S
O111   C614    1.263   .     D
O111   Cu195   1.933   .     S
O112   C616    1.263   .     D
O112   Cu196   1.933   .     S
O113   C578    1.263   .     D
O113   Cu225   1.933   .     S
O114   C580    1.263   .     D
O114   Cu226   1.933   1_556 S
O115   C582    1.263   .     D
O115   Cu206   1.933   1_556 S
O116   C584    1.263   .     D
O116   Cu205   1.933   .     S
O117   C570    1.263   .     D
O117   Cu231   1.933   .     S
O118   C572    1.263   .     D
O118   Cu232   1.933   .     S
O119   C574    1.263   .     D
O119   Cu208   1.933   .     S
O120   C576    1.263   .     D
O120   Cu207   1.933   .     S
O121   C562    1.263   .     D
O121   Cu229   1.933   .     S
O122   C564    1.263   .     D
O122   Cu230   1.933   1_556 S
O123   C566    1.263   .     D
O123   Cu202   1.933   1_556 S
O124   C568    1.263   .     D
O124   Cu201   1.933   .     S
O125   C586    1.263   .     D
O125   Cu227   1.933   .     S
O126   C588    1.263   .     D
O126   Cu228   1.933   .     S
O127   C590    1.263   .     D
O127   Cu204   1.933   .     S
O128   C592    1.263   .     D
O128   Cu203   1.933   .     S
O129   C538    1.263   .     D
O129   Cu223   1.933   .     S
O130   C540    1.263   .     D
O130   Cu213   1.933   .     S
O131   C542    1.263   .     D
O131   Cu224   1.933   1_655 S
O132   C544    1.263   .     D
O132   Cu214   1.933   1_655 S
O133   C546    1.263   .     D
O133   Cu217   1.933   .     S
O134   C548    1.263   .     D
O134   Cu215   1.933   .     S
O135   C550    1.263   .     D
O135   Cu218   1.933   .     S
O136   C552    1.263   .     D
O136   Cu216   1.933   .     S
O137   C554    1.263   .     D
O137   Cu219   1.933   .     S
O138   C556    1.263   .     D
O138   Cu209   1.933   .     S
O139   C558    1.263   .     D
O139   Cu220   1.933   1_655 S
O140   C560    1.263   .     D
O140   Cu210   1.933   1_655 S
O141   C530    1.263   .     D
O141   Cu221   1.933   .     S
O142   C532    1.263   .     D
O142   Cu211   1.933   .     S
O143   C534    1.263   .     D
O143   Cu222   1.933   .     S
O144   C536    1.263   .     D
O144   Cu212   1.933   .     S
O145   C522    1.263   .     D
O145   Cu211   1.933   .     S
O146   C524    1.263   .     D
O146   Cu221   1.933   .     S
O147   C526    1.263   .     D
O147   Cu212   1.933   1_655 S
O148   C528    1.263   .     D
O148   Cu222   1.933   1_655 S
O149   C498    1.263   .     D
O149   Cu213   1.933   .     S
O150   C500    1.263   .     D
O150   Cu223   1.933   .     S
O151   C502    1.263   .     D
O151   Cu214   1.933   .     S
O152   C504    1.263   .     D
O152   Cu224   1.933   .     S
O153   C506    1.263   .     D
O153   Cu215   1.933   .     S
O154   C508    1.263   .     D
O154   Cu217   1.933   .     S
O155   C510    1.263   .     D
O155   Cu216   1.933   1_655 S
O156   C512    1.263   .     D
O156   Cu218   1.933   1_655 S
O157   C514    1.263   .     D
O157   Cu209   1.933   .     S
O158   C516    1.263   .     D
O158   Cu219   1.933   .     S
O159   C518    1.263   .     D
O159   Cu210   1.933   .     S
O160   C520    1.263   .     D
O160   Cu220   1.933   .     S
O161   C482    1.263   .     D
O161   Cu201   1.933   .     S
O162   C484    1.263   .     D
O162   Cu202   1.933   .     S
O163   C486    1.263   .     D
O163   Cu230   1.933   .     S
O164   C488    1.263   .     D
O164   Cu229   1.933   .     S
O165   C474    1.263   .     D
O165   Cu207   1.933   .     S
O166   C476    1.263   .     D
O166   Cu208   1.933   1_556 S
O167   C478    1.263   .     D
O167   Cu232   1.933   1_556 S
O168   C480    1.263   .     D
O168   Cu231   1.933   .     S
O169   C466    1.263   .     D
O169   Cu205   1.933   .     S
O170   C468    1.263   .     D
O170   Cu206   1.933   .     S
O171   C470    1.263   .     D
O171   Cu226   1.933   .     S
O172   C472    1.263   .     D
O172   Cu225   1.933   .     S
O173   C490    1.263   .     D
O173   Cu203   1.933   .     S
O174   C492    1.263   .     D
O174   Cu204   1.933   1_556 S
O175   C494    1.263   .     D
O175   Cu228   1.933   1_556 S
O176   C496    1.263   .     D
O176   Cu227   1.933   .     S
O177   C442    1.263   .     D
O177   Cu199   1.933   .     S
O178   C444    1.263   .     D
O178   Cu200   1.933   1_565 S
O179   C446    1.263   .     D
O179   Cu237   1.933   .     S
O180   C448    1.263   .     D
O180   Cu238   1.933   1_565 S
O181   C450    1.263   .     D
O181   Cu193   1.933   .     S
O182   C452    1.263   .     D
O182   Cu194   1.933   .     S
O183   C454    1.263   .     D
O183   Cu239   1.933   .     S
O184   C456    1.263   .     D
O184   Cu240   1.933   .     S
O185   C458    1.263   .     D
O185   Cu195   1.933   .     S
O186   C460    1.263   .     D
O186   Cu196   1.933   1_565 S
O187   C462    1.263   .     D
O187   Cu233   1.933   .     S
O188   C464    1.263   .     D
O188   Cu234   1.933   1_565 S
O189   C434    1.263   .     D
O189   Cu197   1.933   .     S
O190   C436    1.263   .     D
O190   Cu198   1.933   .     S
O191   C438    1.263   .     D
O191   Cu235   1.933   .     S
O192   C440    1.263   .     D
O192   Cu236   1.933   .     S
Cu193  Cu235   2.494   .     S
Cu194  Cu236   2.494   .     S
Cu194  O108    1.933   1_545 S
Cu194  O94     1.933   1_545 S
Cu195  Cu237   2.494   .     S
Cu196  Cu238   2.494   .     S
Cu196  O8      1.933   1_545 S
Cu196  O186    1.933   1_545 S
Cu197  Cu239   2.494   .     S
Cu198  Cu240   2.494   .     S
Cu198  O100    1.933   1_545 S
Cu198  O86     1.933   1_545 S
Cu199  Cu233   2.494   .     S
Cu200  Cu234   2.494   .     S
Cu200  O16     1.933   1_545 S
Cu200  O178    1.933   1_545 S
Cu201  Cu225   2.494   .     S
Cu202  Cu226   2.494   .     S
Cu202  O123    1.933   1_554 S
Cu202  O74     1.933   1_554 S
Cu203  Cu231   2.494   .     S
Cu204  Cu232   2.494   .     S
Cu204  O23     1.933   1_554 S
Cu204  O174    1.933   1_554 S
Cu205  Cu229   2.494   .     S
Cu206  Cu230   2.494   .     S
Cu206  O115    1.933   1_554 S
Cu206  O66     1.933   1_554 S
Cu207  Cu227   2.494   .     S
Cu208  Cu228   2.494   .     S
Cu208  O31     1.933   1_554 S
Cu208  O166    1.933   1_554 S
Cu209  Cu223   2.494   .     S
Cu210  Cu224   2.494   .     S
Cu210  O140    1.933   1_455 S
Cu210  O55     1.933   1_455 S
Cu211  Cu217   2.494   .     S
Cu212  Cu218   2.494   .     S
Cu212  O40     1.933   1_455 S
Cu212  O147    1.933   1_455 S
Cu213  Cu219   2.494   .     S
Cu214  Cu220   2.494   .     S
Cu214  O132    1.933   1_455 S
Cu214  O63     1.933   1_455 S
Cu215  Cu221   2.494   .     S
Cu216  Cu222   2.494   .     S
Cu216  O48     1.933   1_455 S
Cu216  O155    1.933   1_455 S
Cu218  O156    1.933   1_455 S
Cu218  O47     1.933   1_455 S
Cu220  O56     1.933   1_455 S
Cu220  O139    1.933   1_455 S
Cu222  O148    1.933   1_455 S
Cu222  O39     1.933   1_455 S
Cu224  O64     1.933   1_455 S
Cu224  O131    1.933   1_455 S
Cu226  O67     1.933   1_554 S
Cu226  O114    1.933   1_554 S
Cu228  O175    1.933   1_554 S
Cu228  O22     1.933   1_554 S
Cu230  O75     1.933   1_554 S
Cu230  O122    1.933   1_554 S
Cu232  O167    1.933   1_554 S
Cu232  O30     1.933   1_554 S
Cu234  O188    1.933   1_545 S
Cu234  O6      1.933   1_545 S
Cu236  O88     1.933   1_545 S
Cu236  O98     1.933   1_545 S
Cu238  O180    1.933   1_545 S
Cu238  O14     1.933   1_545 S
Cu240  O96     1.933   1_545 S
Cu240  O106    1.933   1_545 S
H241   C242    0.950   .     S
C242   C497    1.392   .     S
C242   C433    1.392   .     S
H243   C244    0.950   .     S
C244   C499    1.392   .     S
C244   C435    1.392   .     S
H245   C246    0.950   .     S
C246   C501    1.392   .     S
C246   C437    1.392   .     S
H247   C248    0.950   .     S
C248   C503    1.392   .     S
C248   C439    1.392   .     S
H249   C250    0.950   .     S
C250   C521    1.392   .     S
C250   C441    1.392   .     S
H251   C252    0.950   .     S
C252   C523    1.392   .     S
C252   C443    1.392   .     S
H253   C254    0.950   .     S
C254   C525    1.392   .     S
C254   C445    1.392   .     S
H255   C256    0.950   .     S
C256   C527    1.392   .     S
C256   C447    1.392   .     S
H257   C258    0.950   .     S
C258   C505    1.392   .     S
C258   C449    1.392   .     S
H259   C260    0.950   .     S
C260   C507    1.392   .     S
C260   C451    1.392   .     S
H261   C262    0.950   .     S
C262   C509    1.392   .     S
C262   C453    1.392   .     S
H263   C264    0.950   .     S
C264   C511    1.392   .     S
C264   C455    1.392   .     S
H265   C266    0.950   .     S
C266   C513    1.392   .     S
C266   C457    1.392   .     S
H267   C268    0.950   .     S
C268   C515    1.392   .     S
C268   C459    1.392   .     S
H269   C270    0.950   .     S
C270   C517    1.392   .     S
C270   C461    1.392   .     S
H271   C272    0.950   .     S
C272   C519    1.392   .     S
C272   C463    1.392   .     S
H273   C274    0.950   .     S
C274   C433    1.392   .     S
C274   C465    1.392   .     S
H275   C276    0.950   .     S
C276   C435    1.392   .     S
C276   C467    1.392   .     S
H277   C278    0.950   .     S
C278   C437    1.392   .     S
C278   C469    1.392   .     S
H279   C280    0.950   .     S
C280   C439    1.392   .     S
C280   C471    1.392   .     S
H281   C282    0.950   .     S
C282   C457    1.392   .     S
C282   C473    1.392   .     S
H283   C284    0.950   .     S
C284   C459    1.392   .     S
C284   C475    1.392   .     S
H285   C286    0.950   .     S
C286   C461    1.392   .     S
C286   C477    1.392   .     S
H287   C288    0.950   .     S
C288   C463    1.392   .     S
C288   C479    1.392   .     S
H289   C290    0.950   .     S
C290   C441    1.392   .     S
C290   C481    1.392   .     S
H291   C292    0.950   .     S
C292   C443    1.392   .     S
C292   C483    1.392   .     S
H293   C294    0.950   .     S
C294   C445    1.392   .     S
C294   C485    1.392   .     S
H295   C296    0.950   .     S
C296   C447    1.392   .     S
C296   C487    1.392   .     S
H297   C298    0.950   .     S
C298   C449    1.392   .     S
C298   C489    1.392   .     S
H299   C300    0.950   .     S
C300   C451    1.392   .     S
C300   C491    1.392   .     S
H301   C302    0.950   .     S
C302   C453    1.392   .     S
C302   C493    1.392   .     S
H303   C304    0.950   .     S
C304   C455    1.392   .     S
C304   C495    1.392   .     S
H305   C306    0.950   .     S
C306   C465    1.392   .     S
C306   C497    1.392   .     S
H307   C308    0.950   .     S
C308   C467    1.392   .     S
C308   C499    1.392   .     S
H309   C310    0.950   .     S
C310   C469    1.392   .     S
C310   C501    1.392   .     S
H311   C312    0.950   .     S
C312   C471    1.392   .     S
C312   C503    1.392   .     S
H313   C314    0.950   .     S
C314   C489    1.392   .     S
C314   C505    1.392   .     S
H315   C316    0.950   .     S
C316   C491    1.392   .     S
C316   C507    1.392   .     S
H317   C318    0.950   .     S
C318   C493    1.392   .     S
C318   C509    1.392   .     S
H319   C320    0.950   .     S
C320   C495    1.392   .     S
C320   C511    1.392   .     S
H321   C322    0.950   .     S
C322   C473    1.392   .     S
C322   C513    1.392   .     S
H323   C324    0.950   .     S
C324   C475    1.392   .     S
C324   C515    1.392   .     S
H325   C326    0.950   .     S
C326   C477    1.392   .     S
C326   C517    1.392   .     S
H327   C328    0.950   .     S
C328   C479    1.392   .     S
C328   C519    1.392   .     S
H329   C330    0.950   .     S
C330   C481    1.392   .     S
C330   C521    1.392   .     S
H331   C332    0.950   .     S
C332   C483    1.392   .     S
C332   C523    1.392   .     S
H333   C334    0.950   .     S
C334   C485    1.392   .     S
C334   C525    1.392   .     S
H335   C336    0.950   .     S
C336   C487    1.392   .     S
C336   C527    1.392   .     S
H337   C338    0.950   .     S
C338   C593    1.392   .     S
C338   C529    1.392   .     S
H339   C340    0.950   .     S
C340   C595    1.392   .     S
C340   C531    1.392   .     S
H341   C342    0.950   .     S
C342   C597    1.392   .     S
C342   C533    1.392   .     S
H343   C344    0.950   .     S
C344   C599    1.392   .     S
C344   C535    1.392   .     S
H345   C346    0.950   .     S
C346   C617    1.392   .     S
C346   C537    1.392   .     S
H347   C348    0.950   .     S
C348   C619    1.392   .     S
C348   C539    1.392   .     S
H349   C350    0.950   .     S
C350   C621    1.392   .     S
C350   C541    1.392   .     S
H351   C352    0.950   .     S
C352   C623    1.392   .     S
C352   C543    1.392   .     S
H353   C354    0.950   .     S
C354   C601    1.392   .     S
C354   C545    1.392   .     S
H355   C356    0.950   .     S
C356   C603    1.392   .     S
C356   C547    1.392   .     S
H357   C358    0.950   .     S
C358   C605    1.392   .     S
C358   C549    1.392   .     S
H359   C360    0.950   .     S
C360   C607    1.392   .     S
C360   C551    1.392   .     S
H361   C362    0.950   .     S
C362   C609    1.392   .     S
C362   C553    1.392   .     S
H363   C364    0.950   .     S
C364   C611    1.392   .     S
C364   C555    1.392   .     S
H365   C366    0.950   .     S
C366   C613    1.392   .     S
C366   C557    1.392   .     S
H367   C368    0.950   .     S
C368   C615    1.392   .     S
C368   C559    1.392   .     S
H369   C370    0.950   .     S
C370   C529    1.392   .     S
C370   C561    1.392   .     S
H371   C372    0.950   .     S
C372   C531    1.392   .     S
C372   C563    1.392   .     S
H373   C374    0.950   .     S
C374   C533    1.392   .     S
C374   C565    1.392   .     S
H375   C376    0.950   .     S
C376   C535    1.392   .     S
C376   C567    1.392   .     S
H377   C378    0.950   .     S
C378   C553    1.392   .     S
C378   C569    1.392   .     S
H379   C380    0.950   .     S
C380   C555    1.392   .     S
C380   C571    1.392   .     S
H381   C382    0.950   .     S
C382   C557    1.392   .     S
C382   C573    1.392   .     S
H383   C384    0.950   .     S
C384   C559    1.392   .     S
C384   C575    1.392   .     S
H385   C386    0.950   .     S
C386   C537    1.392   .     S
C386   C577    1.392   .     S
H387   C388    0.950   .     S
C388   C539    1.392   .     S
C388   C579    1.392   .     S
H389   C390    0.950   .     S
C390   C541    1.392   .     S
C390   C581    1.392   .     S
H391   C392    0.950   .     S
C392   C543    1.392   .     S
C392   C583    1.392   .     S
H393   C394    0.950   .     S
C394   C545    1.392   .     S
C394   C585    1.392   .     S
H395   C396    0.950   .     S
C396   C547    1.392   .     S
C396   C587    1.392   .     S
H397   C398    0.950   .     S
C398   C549    1.392   .     S
C398   C589    1.392   .     S
H399   C400    0.950   .     S
C400   C551    1.392   .     S
C400   C591    1.392   .     S
H401   C402    0.950   .     S
C402   C561    1.392   .     S
C402   C593    1.392   .     S
H403   C404    0.950   .     S
C404   C563    1.392   .     S
C404   C595    1.392   .     S
H405   C406    0.950   .     S
C406   C565    1.392   .     S
C406   C597    1.392   .     S
H407   C408    0.950   .     S
C408   C567    1.392   .     S
C408   C599    1.392   .     S
H409   C410    0.950   .     S
C410   C585    1.392   .     S
C410   C601    1.392   .     S
H411   C412    0.950   .     S
C412   C587    1.392   .     S
C412   C603    1.392   .     S
H413   C414    0.950   .     S
C414   C589    1.392   .     S
C414   C605    1.392   .     S
H415   C416    0.950   .     S
C416   C591    1.392   .     S
C416   C607    1.392   .     S
H417   C418    0.950   .     S
C418   C569    1.392   .     S
C418   C609    1.392   .     S
H419   C420    0.950   .     S
C420   C571    1.392   .     S
C420   C611    1.392   .     S
H421   C422    0.950   .     S
C422   C573    1.392   .     S
C422   C613    1.392   .     S
H423   C424    0.950   .     S
C424   C575    1.392   .     S
C424   C615    1.392   .     S
H425   C426    0.950   .     S
C426   C577    1.392   .     S
C426   C617    1.392   .     S
H427   C428    0.950   .     S
C428   C579    1.392   .     S
C428   C619    1.392   .     S
H429   C430    0.950   .     S
C430   C581    1.392   .     S
C430   C621    1.392   .     S
H431   C432    0.950   .     S
C432   C583    1.392   .     S
C432   C623    1.392   .     S
C433   C434    1.496   .     S
C435   C436    1.496   .     S
C437   C438    1.496   .     S
C439   C440    1.496   .     S
C441   C442    1.496   .     S
C443   C444    1.496   .     S
C445   C446    1.496   .     S
C447   C448    1.496   .     S
C449   C450    1.496   .     S
C451   C452    1.496   .     S
C453   C454    1.496   .     S
C455   C456    1.496   .     S
C457   C458    1.496   .     S
C459   C460    1.496   .     S
C461   C462    1.496   .     S
C463   C464    1.496   .     S
C465   C466    1.496   .     S
C467   C468    1.496   .     S
C469   C470    1.496   .     S
C471   C472    1.496   .     S
C473   C474    1.496   .     S
C475   C476    1.496   .     S
C477   C478    1.496   .     S
C479   C480    1.496   .     S
C481   C482    1.496   .     S
C483   C484    1.496   .     S
C485   C486    1.496   .     S
C487   C488    1.496   .     S
C489   C490    1.496   .     S
C491   C492    1.496   .     S
C493   C494    1.496   .     S
C495   C496    1.496   .     S
C497   C498    1.496   .     S
C499   C500    1.496   .     S
C501   C502    1.496   .     S
C503   C504    1.496   .     S
C505   C506    1.496   .     S
C507   C508    1.496   .     S
C509   C510    1.496   .     S
C511   C512    1.496   .     S
C513   C514    1.496   .     S
C515   C516    1.496   .     S
C517   C518    1.496   .     S
C519   C520    1.496   .     S
C521   C522    1.496   .     S
C523   C524    1.496   .     S
C525   C526    1.496   .     S
C527   C528    1.496   .     S
C529   C530    1.496   .     S
C531   C532    1.496   .     S
C533   C534    1.496   .     S
C535   C536    1.496   .     S
C537   C538    1.496   .     S
C539   C540    1.496   .     S
C541   C542    1.496   .     S
C543   C544    1.496   .     S
C545   C546    1.496   .     S
C547   C548    1.496   .     S
C549   C550    1.496   .     S
C551   C552    1.496   .     S
C553   C554    1.496   .     S
C555   C556    1.496   .     S
C557   C558    1.496   .     S
C559   C560    1.496   .     S
C561   C562    1.496   .     S
C563   C564    1.496   .     S
C565   C566    1.496   .     S
C567   C568    1.496   .     S
C569   C570    1.496   .     S
C571   C572    1.496   .     S
C573   C574    1.496   .     S
C575   C576    1.496   .     S
C577   C578    1.496   .     S
C579   C580    1.496   .     S
C581   C582    1.496   .     S
C583   C584    1.496   .     S
C585   C586    1.496   .     S
C587   C588    1.496   .     S
C589   C590    1.496   .     S
C591   C592    1.496   .     S
C593   C594    1.496   .     S
C595   C596    1.496   .     S
C597   C598    1.496   .     S
C599   C600    1.496   .     S
C601   C602    1.496   .     S
C603   C604    1.496   .     S
C605   C606    1.496   .     S
C607   C608    1.496   .     S
C609   C610    1.496   .     S
C611   C612    1.496   .     S
C613   C614    1.496   .     S
C615   C616    1.496   .     S
C617   C618    1.496   .     S
C619   C620    1.496   .     S
C621   C622    1.496   .     S
C623   C624    1.496   .     S
