data_KOJZAL_clean\(2)
_audit_creation_date              2015-01-20
_audit_creation_method            'Materials Studio'
_symmetry_space_group_name_H-M    'P1'
_symmetry_Int_Tables_number       1
_symmetry_cell_setting            triclinic
loop_
_symmetry_equiv_pos_as_xyz
  x,y,z
_cell_length_a                    36.4817
_cell_length_b                    20.0964
_cell_length_c                    53.7899
_cell_angle_alpha                 90.0000
_cell_angle_beta                  90.0000
_cell_angle_gamma                 90.0000
loop_
_atom_site_label
_atom_site_type_symbol
_atom_site_fract_x
_atom_site_fract_y
_atom_site_fract_z
_atom_site_U_iso_or_equiv
_atom_site_adp_type
_atom_site_occupancy
H1     H     0.04030   0.16475   0.30615   0.01267  Uiso   1.00
H2     H     0.07250   0.20260   0.34040   0.01267  Uiso   1.00
H3     H     0.11815   0.02255   0.34875   0.01267  Uiso   1.00
H4     H     0.08795   0.48555   0.31350   0.01267  Uiso   1.00
C5     C     0.06115   0.07180   0.30606   0.01267  Uiso   1.00
C6     C     0.05650   0.13600   0.31448   0.01267  Uiso   1.00
C7     C     0.07540   0.15835   0.33500   0.01267  Uiso   1.00
C8     C     0.09815   0.11685   0.34755   0.01267  Uiso   1.00
C9     C     0.10275   0.05150   0.33985   0.01267  Uiso   1.00
C10    C     0.08455   0.02950   0.31903   0.01267  Uiso   1.00
C11    C     0.03960   0.04650   0.28418   0.01267  Uiso   1.00
N12    N     0.11610   0.14520   0.36889   0.01267  Uiso   1.00
O13    O     0.01522   0.08430   0.27589   0.01267  Uiso   1.00
O14    O     0.45262   0.01030   0.27621   0.01267  Uiso   1.00
H15    H     0.29030   0.41475   0.05615   0.01267  Uiso   1.00
H16    H     0.32250   0.45260   0.09040   0.01267  Uiso   1.00
H17    H     0.36815   0.27255   0.09875   0.01267  Uiso   1.00
H18    H     0.33795   0.23555   0.06350   0.01267  Uiso   1.00
C19    C     0.31115   0.32180   0.05606   0.01267  Uiso   1.00
C20    C     0.30650   0.38600   0.06448   0.01267  Uiso   1.00
C21    C     0.32540   0.40835   0.08500   0.01267  Uiso   1.00
C22    C     0.34815   0.36685   0.09755   0.01267  Uiso   1.00
C23    C     0.35275   0.30150   0.08985   0.01267  Uiso   1.00
C24    C     0.33455   0.27950   0.06903   0.01267  Uiso   1.00
C25    C     0.28960   0.29650   0.03418   0.01267  Uiso   1.00
N26    N     0.36610   0.39520   0.11889   0.01267  Uiso   1.00
O27    O     0.26523   0.33430   0.02589   0.01267  Uiso   1.00
O28    O     0.20262   0.26030   0.02621   0.01267  Uiso   1.00
H29    H     0.45970   0.33525   0.30615   0.01267  Uiso   1.00
H30    H     0.42750   0.29740   0.34040   0.01267  Uiso   1.00
H31    H     0.38185   0.47745   0.34875   0.01267  Uiso   1.00
H32    H     0.41205   0.01445   0.31350   0.01267  Uiso   1.00
C33    C     0.43885   0.42820   0.30606   0.01267  Uiso   1.00
C34    C     0.44350   0.36400   0.31448   0.01267  Uiso   1.00
C35    C     0.42460   0.34165   0.33500   0.01267  Uiso   1.00
C36    C     0.40185   0.38315   0.34755   0.01267  Uiso   1.00
C37    C     0.39725   0.44850   0.33985   0.01267  Uiso   1.00
C38    C     0.41545   0.47050   0.31903   0.01267  Uiso   1.00
C39    C     0.46040   0.45350   0.28419   0.01267  Uiso   1.00
N40    N     0.38390   0.35480   0.36889   0.01267  Uiso   1.00
O41    O     0.48478   0.41570   0.27589   0.01267  Uiso   1.00
O42    O     0.04738   0.48970   0.27621   0.01267  Uiso   1.00
H43    H     0.20970   0.08525   0.05615   0.01267  Uiso   1.00
H44    H     0.17750   0.04740   0.09040   0.01267  Uiso   1.00
H45    H     0.13185   0.22745   0.09875   0.01267  Uiso   1.00
H46    H     0.16205   0.26445   0.06350   0.01267  Uiso   1.00
C47    C     0.18885   0.17820   0.05606   0.01267  Uiso   1.00
C48    C     0.19350   0.11400   0.06448   0.01267  Uiso   1.00
C49    C     0.17460   0.09165   0.08500   0.01267  Uiso   1.00
C50    C     0.15185   0.13315   0.09755   0.01267  Uiso   1.00
C51    C     0.14725   0.19850   0.08985   0.01267  Uiso   1.00
C52    C     0.16545   0.22050   0.06903   0.01267  Uiso   1.00
C53    C     0.21040   0.20350   0.03418   0.01267  Uiso   1.00
N54    N     0.13390   0.10480   0.11889   0.01267  Uiso   1.00
O55    O     0.23478   0.16570   0.02589   0.01267  Uiso   1.00
O56    O     0.29738   0.23970   0.02621   0.01267  Uiso   1.00
H57    H     0.20970   0.41475   0.19385   0.01267  Uiso   1.00
H58    H     0.17750   0.45260   0.15960   0.01267  Uiso   1.00
H59    H     0.13185   0.27255   0.15125   0.01267  Uiso   1.00
H60    H     0.16205   0.23555   0.18650   0.01267  Uiso   1.00
C61    C     0.18885   0.32180   0.19394   0.01267  Uiso   1.00
C62    C     0.19350   0.38600   0.18552   0.01267  Uiso   1.00
C63    C     0.17460   0.40835   0.16500   0.01267  Uiso   1.00
C64    C     0.15185   0.36685   0.15245   0.01267  Uiso   1.00
C65    C     0.14725   0.30150   0.16015   0.01267  Uiso   1.00
C66    C     0.16545   0.27950   0.18097   0.01267  Uiso   1.00
C67    C     0.21040   0.29650   0.21582   0.01267  Uiso   1.00
N68    N     0.13390   0.39520   0.13111   0.01267  Uiso   1.00
O69    O     0.23478   0.33430   0.22411   0.01267  Uiso   1.00
O70    O     0.29738   0.26030   0.22379   0.01267  Uiso   1.00
H71    H     0.45970   0.16475   0.44385   0.01267  Uiso   1.00
H72    H     0.42750   0.20260   0.40960   0.01267  Uiso   1.00
H73    H     0.38185   0.02255   0.40125   0.01267  Uiso   1.00
H74    H     0.41205   0.48555   0.43650   0.01267  Uiso   1.00
C75    C     0.43885   0.07180   0.44394   0.01267  Uiso   1.00
C76    C     0.44350   0.13600   0.43552   0.01267  Uiso   1.00
C77    C     0.42460   0.15835   0.41500   0.01267  Uiso   1.00
C78    C     0.40185   0.11685   0.40245   0.01267  Uiso   1.00
C79    C     0.39725   0.05150   0.41015   0.01267  Uiso   1.00
C80    C     0.41545   0.02950   0.43097   0.01267  Uiso   1.00
C81    C     0.46040   0.04650   0.46582   0.01267  Uiso   1.00
N82    N     0.38390   0.14520   0.38111   0.01267  Uiso   1.00
O83    O     0.48478   0.08430   0.47411   0.01267  Uiso   1.00
O84    O     0.04738   0.01030   0.47379   0.01267  Uiso   1.00
H85    H     0.29030   0.08525   0.19385   0.01267  Uiso   1.00
H86    H     0.32250   0.04740   0.15960   0.01267  Uiso   1.00
H87    H     0.36815   0.22745   0.15125   0.01267  Uiso   1.00
H88    H     0.33795   0.26445   0.18650   0.01267  Uiso   1.00
C89    C     0.31115   0.17820   0.19394   0.01267  Uiso   1.00
C90    C     0.30650   0.11400   0.18552   0.01267  Uiso   1.00
C91    C     0.32540   0.09165   0.16500   0.01267  Uiso   1.00
C92    C     0.34815   0.13315   0.15245   0.01267  Uiso   1.00
C93    C     0.35275   0.19850   0.16015   0.01267  Uiso   1.00
C94    C     0.33455   0.22050   0.18097   0.01267  Uiso   1.00
C95    C     0.28960   0.20350   0.21582   0.01267  Uiso   1.00
N96    N     0.36610   0.10480   0.13111   0.01267  Uiso   1.00
O97    O     0.26522   0.16570   0.22411   0.01267  Uiso   1.00
O98    O     0.20262   0.23970   0.22379   0.01267  Uiso   1.00
H99    H     0.04030   0.33525   0.44385   0.01267  Uiso   1.00
H100   H     0.07250   0.29740   0.40960   0.01267  Uiso   1.00
H101   H     0.11815   0.47745   0.40125   0.01267  Uiso   1.00
H102   H     0.08795   0.01445   0.43650   0.01267  Uiso   1.00
C103   C     0.06115   0.42820   0.44394   0.01267  Uiso   1.00
C104   C     0.05650   0.36400   0.43552   0.01267  Uiso   1.00
C105   C     0.07540   0.34165   0.41500   0.01267  Uiso   1.00
C106   C     0.09815   0.38315   0.40245   0.01267  Uiso   1.00
C107   C     0.10275   0.44850   0.41015   0.01267  Uiso   1.00
C108   C     0.08455   0.47050   0.43097   0.01267  Uiso   1.00
C109   C     0.03960   0.45350   0.46582   0.01267  Uiso   1.00
N110   N     0.11610   0.35480   0.38111   0.01267  Uiso   1.00
O111   O     0.01522   0.41570   0.47411   0.01267  Uiso   1.00
O112   O     0.45262   0.48970   0.47379   0.01267  Uiso   1.00
H113   H     0.45970   0.33525   0.19385   0.01267  Uiso   1.00
H114   H     0.42750   0.29740   0.15960   0.01267  Uiso   1.00
H115   H     0.38185   0.47745   0.15125   0.01267  Uiso   1.00
H116   H     0.41205   0.01445   0.18650   0.01267  Uiso   1.00
C117   C     0.43885   0.42820   0.19394   0.01267  Uiso   1.00
C118   C     0.44350   0.36400   0.18552   0.01267  Uiso   1.00
C119   C     0.42460   0.34165   0.16500   0.01267  Uiso   1.00
C120   C     0.40185   0.38315   0.15245   0.01267  Uiso   1.00
C121   C     0.39725   0.44850   0.16015   0.01267  Uiso   1.00
C122   C     0.41545   0.47050   0.18097   0.01267  Uiso   1.00
C123   C     0.46040   0.45350   0.21582   0.01267  Uiso   1.00
N124   N     0.38390   0.35480   0.13111   0.01267  Uiso   1.00
O125   O     0.48478   0.41570   0.22411   0.01267  Uiso   1.00
O126   O     0.04738   0.48970   0.22379   0.01267  Uiso   1.00
H127   H     0.20970   0.08525   0.44385   0.01267  Uiso   1.00
H128   H     0.17750   0.04740   0.40960   0.01267  Uiso   1.00
H129   H     0.13185   0.22745   0.40125   0.01267  Uiso   1.00
H130   H     0.16205   0.26445   0.43650   0.01267  Uiso   1.00
C131   C     0.18885   0.17820   0.44394   0.01267  Uiso   1.00
C132   C     0.19350   0.11400   0.43552   0.01267  Uiso   1.00
C133   C     0.17460   0.09165   0.41500   0.01267  Uiso   1.00
C134   C     0.15185   0.13315   0.40245   0.01267  Uiso   1.00
C135   C     0.14725   0.19850   0.41015   0.01267  Uiso   1.00
C136   C     0.16545   0.22050   0.43097   0.01267  Uiso   1.00
C137   C     0.21040   0.20350   0.46582   0.01267  Uiso   1.00
N138   N     0.13390   0.10480   0.38111   0.01267  Uiso   1.00
O139   O     0.23478   0.16570   0.47411   0.01267  Uiso   1.00
O140   O     0.29738   0.23970   0.47379   0.01267  Uiso   1.00
H141   H     0.04030   0.16475   0.19385   0.01267  Uiso   1.00
H142   H     0.07250   0.20260   0.15960   0.01267  Uiso   1.00
H143   H     0.11815   0.02255   0.15125   0.01267  Uiso   1.00
H144   H     0.08795   0.48555   0.18650   0.01267  Uiso   1.00
C145   C     0.06115   0.07180   0.19394   0.01267  Uiso   1.00
C146   C     0.05650   0.13600   0.18552   0.01267  Uiso   1.00
C147   C     0.07540   0.15835   0.16500   0.01267  Uiso   1.00
C148   C     0.09815   0.11685   0.15245   0.01267  Uiso   1.00
C149   C     0.10275   0.05150   0.16015   0.01267  Uiso   1.00
C150   C     0.08455   0.02950   0.18097   0.01267  Uiso   1.00
C151   C     0.03960   0.04650   0.21582   0.01267  Uiso   1.00
N152   N     0.11610   0.14520   0.13111   0.01267  Uiso   1.00
O153   O     0.01523   0.08430   0.22411   0.01267  Uiso   1.00
O154   O     0.45262   0.01030   0.22379   0.01267  Uiso   1.00
H155   H     0.29030   0.41475   0.44385   0.01267  Uiso   1.00
H156   H     0.32250   0.45260   0.40960   0.01267  Uiso   1.00
H157   H     0.36815   0.27255   0.40125   0.01267  Uiso   1.00
H158   H     0.33795   0.23555   0.43650   0.01267  Uiso   1.00
C159   C     0.31115   0.32180   0.44394   0.01267  Uiso   1.00
C160   C     0.30650   0.38600   0.43552   0.01267  Uiso   1.00
C161   C     0.32540   0.40835   0.41500   0.01267  Uiso   1.00
C162   C     0.34815   0.36685   0.40245   0.01267  Uiso   1.00
C163   C     0.35275   0.30150   0.41015   0.01267  Uiso   1.00
C164   C     0.33455   0.27950   0.43097   0.01267  Uiso   1.00
C165   C     0.28960   0.29650   0.46582   0.01267  Uiso   1.00
N166   N     0.36610   0.39520   0.38111   0.01267  Uiso   1.00
O167   O     0.26523   0.33430   0.47411   0.01267  Uiso   1.00
O168   O     0.20262   0.26030   0.47379   0.01267  Uiso   1.00
H169   H     0.29030   0.08525   0.30615   0.01267  Uiso   1.00
H170   H     0.32250   0.04740   0.34040   0.01267  Uiso   1.00
H171   H     0.36815   0.22745   0.34875   0.01267  Uiso   1.00
H172   H     0.33795   0.26445   0.31350   0.01267  Uiso   1.00
C173   C     0.31115   0.17820   0.30606   0.01267  Uiso   1.00
C174   C     0.30650   0.11400   0.31448   0.01267  Uiso   1.00
C175   C     0.32540   0.09165   0.33500   0.01267  Uiso   1.00
C176   C     0.34815   0.13315   0.34755   0.01267  Uiso   1.00
C177   C     0.35275   0.19850   0.33985   0.01267  Uiso   1.00
C178   C     0.33455   0.22050   0.31903   0.01267  Uiso   1.00
C179   C     0.28960   0.20350   0.28418   0.01267  Uiso   1.00
N180   N     0.36610   0.10480   0.36889   0.01267  Uiso   1.00
O181   O     0.26523   0.16570   0.27589   0.01267  Uiso   1.00
O182   O     0.20262   0.23970   0.27621   0.01267  Uiso   1.00
H183   H     0.04030   0.33525   0.05615   0.01267  Uiso   1.00
H184   H     0.07250   0.29740   0.09040   0.01267  Uiso   1.00
H185   H     0.11815   0.47745   0.09875   0.01267  Uiso   1.00
H186   H     0.08795   0.01445   0.06350   0.01267  Uiso   1.00
C187   C     0.06115   0.42820   0.05606   0.01267  Uiso   1.00
C188   C     0.05650   0.36400   0.06448   0.01267  Uiso   1.00
C189   C     0.07540   0.34165   0.08500   0.01267  Uiso   1.00
C190   C     0.09815   0.38315   0.09755   0.01267  Uiso   1.00
C191   C     0.10275   0.44850   0.08985   0.01267  Uiso   1.00
C192   C     0.08455   0.47050   0.06903   0.01267  Uiso   1.00
C193   C     0.03960   0.45350   0.03418   0.01267  Uiso   1.00
N194   N     0.11610   0.35480   0.11889   0.01267  Uiso   1.00
O195   O     0.01523   0.41570   0.02589   0.01267  Uiso   1.00
O196   O     0.45262   0.48970   0.02621   0.01267  Uiso   1.00
H197   H     0.20970   0.41475   0.30615   0.01267  Uiso   1.00
H198   H     0.17750   0.45260   0.34040   0.01267  Uiso   1.00
H199   H     0.13185   0.27255   0.34875   0.01267  Uiso   1.00
H200   H     0.16205   0.23555   0.31350   0.01267  Uiso   1.00
C201   C     0.18885   0.32180   0.30606   0.01267  Uiso   1.00
C202   C     0.19350   0.38600   0.31448   0.01267  Uiso   1.00
C203   C     0.17460   0.40835   0.33500   0.01267  Uiso   1.00
C204   C     0.15185   0.36685   0.34755   0.01267  Uiso   1.00
C205   C     0.14725   0.30150   0.33985   0.01267  Uiso   1.00
C206   C     0.16545   0.27950   0.31903   0.01267  Uiso   1.00
C207   C     0.21040   0.29650   0.28419   0.01267  Uiso   1.00
N208   N     0.13390   0.39520   0.36889   0.01267  Uiso   1.00
O209   O     0.23478   0.33430   0.27589   0.01267  Uiso   1.00
O210   O     0.29738   0.26030   0.27621   0.01267  Uiso   1.00
H211   H     0.45970   0.16475   0.05615   0.01267  Uiso   1.00
H212   H     0.42750   0.20260   0.09040   0.01267  Uiso   1.00
H213   H     0.38185   0.02255   0.09875   0.01267  Uiso   1.00
H214   H     0.41205   0.48555   0.06350   0.01267  Uiso   1.00
C215   C     0.43885   0.07180   0.05606   0.01267  Uiso   1.00
C216   C     0.44350   0.13600   0.06448   0.01267  Uiso   1.00
C217   C     0.42460   0.15835   0.08500   0.01267  Uiso   1.00
C218   C     0.40185   0.11685   0.09755   0.01267  Uiso   1.00
C219   C     0.39725   0.05150   0.08985   0.01267  Uiso   1.00
C220   C     0.41545   0.02950   0.06903   0.01267  Uiso   1.00
C221   C     0.46040   0.04650   0.03418   0.01267  Uiso   1.00
N222   N     0.38390   0.14520   0.11889   0.01267  Uiso   1.00
O223   O     0.48478   0.08430   0.02589   0.01267  Uiso   1.00
O224   O     0.04738   0.01030   0.02621   0.01267  Uiso   1.00
Cu225  Cu    0.48055   0.05620   0.25000   0.01267  Uiso   1.00
Cu226  Cu    0.23055   0.30620   0.00000   0.01267  Uiso   1.00
Cu227  Cu    0.01945   0.44380   0.25000   0.01267  Uiso   1.00
Cu228  Cu    0.26945   0.19380   0.00000   0.01267  Uiso   1.00
Cu229  Cu    0.26945   0.30620   0.25000   0.01267  Uiso   1.00
Cu230  Cu    0.01945   0.05620   0.00000   0.01267  Uiso   1.00
Cu231  Cu    0.23055   0.19380   0.25000   0.01267  Uiso   1.00
Cu232  Cu    0.48055   0.44380   0.00000   0.01267  Uiso   1.00
H233   H     0.54030   0.16475   0.30615   0.01267  Uiso   1.00
H234   H     0.57250   0.20260   0.34040   0.01267  Uiso   1.00
H235   H     0.61815   0.02255   0.34875   0.01267  Uiso   1.00
H236   H     0.58795   0.48555   0.31350   0.01267  Uiso   1.00
C237   C     0.56115   0.07180   0.30606   0.01267  Uiso   1.00
C238   C     0.55650   0.13600   0.31448   0.01267  Uiso   1.00
C239   C     0.57540   0.15835   0.33500   0.01267  Uiso   1.00
C240   C     0.59815   0.11685   0.34755   0.01267  Uiso   1.00
C241   C     0.60275   0.05150   0.33985   0.01267  Uiso   1.00
C242   C     0.58455   0.02950   0.31903   0.01267  Uiso   1.00
C243   C     0.53960   0.04650   0.28418   0.01267  Uiso   1.00
N244   N     0.61610   0.14520   0.36889   0.01267  Uiso   1.00
O245   O     0.51523   0.08430   0.27589   0.01267  Uiso   1.00
O246   O     0.95262   0.01030   0.27621   0.01267  Uiso   1.00
H247   H     0.79030   0.41475   0.05615   0.01267  Uiso   1.00
H248   H     0.82250   0.45260   0.09040   0.01267  Uiso   1.00
H249   H     0.86815   0.27255   0.09875   0.01267  Uiso   1.00
H250   H     0.83795   0.23555   0.06350   0.01267  Uiso   1.00
C251   C     0.81115   0.32180   0.05606   0.01267  Uiso   1.00
C252   C     0.80650   0.38600   0.06448   0.01267  Uiso   1.00
C253   C     0.82540   0.40835   0.08500   0.01267  Uiso   1.00
C254   C     0.84815   0.36685   0.09755   0.01267  Uiso   1.00
C255   C     0.85275   0.30150   0.08985   0.01267  Uiso   1.00
C256   C     0.83455   0.27950   0.06903   0.01267  Uiso   1.00
C257   C     0.78960   0.29650   0.03418   0.01267  Uiso   1.00
N258   N     0.86610   0.39520   0.11889   0.01267  Uiso   1.00
O259   O     0.76523   0.33430   0.02589   0.01267  Uiso   1.00
O260   O     0.70262   0.26030   0.02621   0.01267  Uiso   1.00
H261   H     0.95970   0.33525   0.30615   0.01267  Uiso   1.00
H262   H     0.92750   0.29740   0.34040   0.01267  Uiso   1.00
H263   H     0.88185   0.47745   0.34875   0.01267  Uiso   1.00
H264   H     0.91205   0.01445   0.31350   0.01267  Uiso   1.00
C265   C     0.93885   0.42820   0.30606   0.01267  Uiso   1.00
C266   C     0.94350   0.36400   0.31448   0.01267  Uiso   1.00
C267   C     0.92460   0.34165   0.33500   0.01267  Uiso   1.00
C268   C     0.90185   0.38315   0.34755   0.01267  Uiso   1.00
C269   C     0.89725   0.44850   0.33985   0.01267  Uiso   1.00
C270   C     0.91545   0.47050   0.31904   0.01267  Uiso   1.00
C271   C     0.96040   0.45350   0.28419   0.01267  Uiso   1.00
N272   N     0.88390   0.35480   0.36889   0.01267  Uiso   1.00
O273   O     0.98478   0.41570   0.27589   0.01267  Uiso   1.00
O274   O     0.54738   0.48970   0.27621   0.01267  Uiso   1.00
H275   H     0.70970   0.08525   0.05615   0.01267  Uiso   1.00
H276   H     0.67750   0.04740   0.09040   0.01267  Uiso   1.00
H277   H     0.63185   0.22745   0.09875   0.01267  Uiso   1.00
H278   H     0.66205   0.26445   0.06350   0.01267  Uiso   1.00
C279   C     0.68885   0.17820   0.05606   0.01267  Uiso   1.00
C280   C     0.69350   0.11400   0.06448   0.01267  Uiso   1.00
C281   C     0.67460   0.09165   0.08500   0.01267  Uiso   1.00
C282   C     0.65185   0.13315   0.09755   0.01267  Uiso   1.00
C283   C     0.64725   0.19850   0.08985   0.01267  Uiso   1.00
C284   C     0.66545   0.22050   0.06903   0.01267  Uiso   1.00
C285   C     0.71040   0.20350   0.03418   0.01267  Uiso   1.00
N286   N     0.63390   0.10480   0.11889   0.01267  Uiso   1.00
O287   O     0.73478   0.16570   0.02589   0.01267  Uiso   1.00
O288   O     0.79738   0.23970   0.02621   0.01267  Uiso   1.00
H289   H     0.70970   0.41475   0.19385   0.01267  Uiso   1.00
H290   H     0.67750   0.45260   0.15960   0.01267  Uiso   1.00
H291   H     0.63185   0.27255   0.15125   0.01267  Uiso   1.00
H292   H     0.66205   0.23555   0.18650   0.01267  Uiso   1.00
C293   C     0.68885   0.32180   0.19394   0.01267  Uiso   1.00
C294   C     0.69350   0.38600   0.18552   0.01267  Uiso   1.00
C295   C     0.67460   0.40835   0.16500   0.01267  Uiso   1.00
C296   C     0.65185   0.36685   0.15245   0.01267  Uiso   1.00
C297   C     0.64725   0.30150   0.16015   0.01267  Uiso   1.00
C298   C     0.66545   0.27950   0.18097   0.01267  Uiso   1.00
C299   C     0.71040   0.29650   0.21582   0.01267  Uiso   1.00
N300   N     0.63390   0.39520   0.13111   0.01267  Uiso   1.00
O301   O     0.73478   0.33430   0.22411   0.01267  Uiso   1.00
O302   O     0.79738   0.26030   0.22379   0.01267  Uiso   1.00
H303   H     0.95970   0.16475   0.44385   0.01267  Uiso   1.00
H304   H     0.92750   0.20260   0.40960   0.01267  Uiso   1.00
H305   H     0.88185   0.02255   0.40125   0.01267  Uiso   1.00
H306   H     0.91205   0.48555   0.43650   0.01267  Uiso   1.00
C307   C     0.93885   0.07180   0.44394   0.01267  Uiso   1.00
C308   C     0.94350   0.13600   0.43552   0.01267  Uiso   1.00
C309   C     0.92460   0.15835   0.41500   0.01267  Uiso   1.00
C310   C     0.90185   0.11685   0.40245   0.01267  Uiso   1.00
C311   C     0.89725   0.05150   0.41015   0.01267  Uiso   1.00
C312   C     0.91545   0.02950   0.43097   0.01267  Uiso   1.00
C313   C     0.96040   0.04650   0.46582   0.01267  Uiso   1.00
N314   N     0.88390   0.14520   0.38111   0.01267  Uiso   1.00
O315   O     0.98478   0.08430   0.47411   0.01267  Uiso   1.00
O316   O     0.54738   0.01030   0.47379   0.01267  Uiso   1.00
H317   H     0.79030   0.08525   0.19385   0.01267  Uiso   1.00
H318   H     0.82250   0.04740   0.15960   0.01267  Uiso   1.00
H319   H     0.86815   0.22745   0.15125   0.01267  Uiso   1.00
H320   H     0.83795   0.26445   0.18650   0.01267  Uiso   1.00
C321   C     0.81115   0.17820   0.19394   0.01267  Uiso   1.00
C322   C     0.80650   0.11400   0.18552   0.01267  Uiso   1.00
C323   C     0.82540   0.09165   0.16500   0.01267  Uiso   1.00
C324   C     0.84815   0.13315   0.15245   0.01267  Uiso   1.00
C325   C     0.85275   0.19850   0.16015   0.01267  Uiso   1.00
C326   C     0.83455   0.22050   0.18097   0.01267  Uiso   1.00
C327   C     0.78960   0.20350   0.21582   0.01267  Uiso   1.00
N328   N     0.86610   0.10480   0.13111   0.01267  Uiso   1.00
O329   O     0.76522   0.16570   0.22411   0.01267  Uiso   1.00
O330   O     0.70262   0.23970   0.22379   0.01267  Uiso   1.00
H331   H     0.54030   0.33525   0.44385   0.01267  Uiso   1.00
H332   H     0.57250   0.29740   0.40960   0.01267  Uiso   1.00
H333   H     0.61815   0.47745   0.40125   0.01267  Uiso   1.00
H334   H     0.58795   0.01445   0.43650   0.01267  Uiso   1.00
C335   C     0.56115   0.42820   0.44394   0.01267  Uiso   1.00
C336   C     0.55650   0.36400   0.43552   0.01267  Uiso   1.00
C337   C     0.57540   0.34165   0.41500   0.01267  Uiso   1.00
C338   C     0.59815   0.38315   0.40245   0.01267  Uiso   1.00
C339   C     0.60275   0.44850   0.41015   0.01267  Uiso   1.00
C340   C     0.58455   0.47050   0.43097   0.01267  Uiso   1.00
C341   C     0.53960   0.45350   0.46582   0.01267  Uiso   1.00
N342   N     0.61610   0.35480   0.38111   0.01267  Uiso   1.00
O343   O     0.51522   0.41570   0.47411   0.01267  Uiso   1.00
O344   O     0.95262   0.48970   0.47379   0.01267  Uiso   1.00
H345   H     0.95970   0.33525   0.19385   0.01267  Uiso   1.00
H346   H     0.92750   0.29740   0.15960   0.01267  Uiso   1.00
H347   H     0.88185   0.47745   0.15125   0.01267  Uiso   1.00
H348   H     0.91205   0.01445   0.18650   0.01267  Uiso   1.00
C349   C     0.93885   0.42820   0.19394   0.01267  Uiso   1.00
C350   C     0.94350   0.36400   0.18552   0.01267  Uiso   1.00
C351   C     0.92460   0.34165   0.16500   0.01267  Uiso   1.00
C352   C     0.90185   0.38315   0.15245   0.01267  Uiso   1.00
C353   C     0.89725   0.44850   0.16015   0.01267  Uiso   1.00
C354   C     0.91545   0.47050   0.18097   0.01267  Uiso   1.00
C355   C     0.96040   0.45350   0.21582   0.01267  Uiso   1.00
N356   N     0.88390   0.35480   0.13111   0.01267  Uiso   1.00
O357   O     0.98478   0.41570   0.22411   0.01267  Uiso   1.00
O358   O     0.54738   0.48970   0.22379   0.01267  Uiso   1.00
H359   H     0.70970   0.08525   0.44385   0.01267  Uiso   1.00
H360   H     0.67750   0.04740   0.40960   0.01267  Uiso   1.00
H361   H     0.63185   0.22745   0.40125   0.01267  Uiso   1.00
H362   H     0.66205   0.26445   0.43650   0.01267  Uiso   1.00
C363   C     0.68885   0.17820   0.44394   0.01267  Uiso   1.00
C364   C     0.69350   0.11400   0.43552   0.01267  Uiso   1.00
C365   C     0.67460   0.09165   0.41500   0.01267  Uiso   1.00
C366   C     0.65185   0.13315   0.40245   0.01267  Uiso   1.00
C367   C     0.64725   0.19850   0.41015   0.01267  Uiso   1.00
C368   C     0.66545   0.22050   0.43097   0.01267  Uiso   1.00
C369   C     0.71040   0.20350   0.46582   0.01267  Uiso   1.00
N370   N     0.63390   0.10480   0.38111   0.01267  Uiso   1.00
O371   O     0.73478   0.16570   0.47411   0.01267  Uiso   1.00
O372   O     0.79738   0.23970   0.47379   0.01267  Uiso   1.00
H373   H     0.54030   0.16475   0.19385   0.01267  Uiso   1.00
H374   H     0.57250   0.20260   0.15960   0.01267  Uiso   1.00
H375   H     0.61815   0.02255   0.15125   0.01267  Uiso   1.00
H376   H     0.58795   0.48555   0.18650   0.01267  Uiso   1.00
C377   C     0.56115   0.07180   0.19394   0.01267  Uiso   1.00
C378   C     0.55650   0.13600   0.18552   0.01267  Uiso   1.00
C379   C     0.57540   0.15835   0.16500   0.01267  Uiso   1.00
C380   C     0.59815   0.11685   0.15245   0.01267  Uiso   1.00
C381   C     0.60275   0.05150   0.16015   0.01267  Uiso   1.00
C382   C     0.58455   0.02950   0.18097   0.01267  Uiso   1.00
C383   C     0.53960   0.04650   0.21582   0.01267  Uiso   1.00
N384   N     0.61610   0.14520   0.13111   0.01267  Uiso   1.00
O385   O     0.51523   0.08430   0.22411   0.01267  Uiso   1.00
O386   O     0.95262   0.01030   0.22379   0.01267  Uiso   1.00
H387   H     0.79030   0.41475   0.44385   0.01267  Uiso   1.00
H388   H     0.82250   0.45260   0.40960   0.01267  Uiso   1.00
H389   H     0.86815   0.27255   0.40125   0.01267  Uiso   1.00
H390   H     0.83795   0.23555   0.43650   0.01267  Uiso   1.00
C391   C     0.81115   0.32180   0.44394   0.01267  Uiso   1.00
C392   C     0.80650   0.38600   0.43552   0.01267  Uiso   1.00
C393   C     0.82540   0.40835   0.41500   0.01267  Uiso   1.00
C394   C     0.84815   0.36685   0.40245   0.01267  Uiso   1.00
C395   C     0.85275   0.30150   0.41015   0.01267  Uiso   1.00
C396   C     0.83455   0.27950   0.43097   0.01267  Uiso   1.00
C397   C     0.78960   0.29650   0.46582   0.01267  Uiso   1.00
N398   N     0.86610   0.39520   0.38111   0.01267  Uiso   1.00
O399   O     0.76523   0.33430   0.47411   0.01267  Uiso   1.00
O400   O     0.70262   0.26030   0.47379   0.01267  Uiso   1.00
H401   H     0.79030   0.08525   0.30615   0.01267  Uiso   1.00
H402   H     0.82250   0.04740   0.34040   0.01267  Uiso   1.00
H403   H     0.86815   0.22745   0.34875   0.01267  Uiso   1.00
H404   H     0.83795   0.26445   0.31350   0.01267  Uiso   1.00
C405   C     0.81115   0.17820   0.30606   0.01267  Uiso   1.00
C406   C     0.80650   0.11400   0.31448   0.01267  Uiso   1.00
C407   C     0.82540   0.09165   0.33500   0.01267  Uiso   1.00
C408   C     0.84815   0.13315   0.34755   0.01267  Uiso   1.00
C409   C     0.85275   0.19850   0.33985   0.01267  Uiso   1.00
C410   C     0.83455   0.22050   0.31903   0.01267  Uiso   1.00
C411   C     0.78960   0.20350   0.28418   0.01267  Uiso   1.00
N412   N     0.86610   0.10480   0.36889   0.01267  Uiso   1.00
O413   O     0.76523   0.16570   0.27589   0.01267  Uiso   1.00
O414   O     0.70262   0.23970   0.27621   0.01267  Uiso   1.00
H415   H     0.54030   0.33525   0.05615   0.01267  Uiso   1.00
H416   H     0.57250   0.29740   0.09040   0.01267  Uiso   1.00
H417   H     0.61815   0.47745   0.09875   0.01267  Uiso   1.00
H418   H     0.58795   0.01445   0.06350   0.01267  Uiso   1.00
C419   C     0.56115   0.42820   0.05606   0.01267  Uiso   1.00
C420   C     0.55650   0.36400   0.06448   0.01267  Uiso   1.00
C421   C     0.57540   0.34165   0.08500   0.01267  Uiso   1.00
C422   C     0.59815   0.38315   0.09755   0.01267  Uiso   1.00
C423   C     0.60275   0.44850   0.08985   0.01267  Uiso   1.00
C424   C     0.58455   0.47050   0.06903   0.01267  Uiso   1.00
C425   C     0.53960   0.45350   0.03418   0.01267  Uiso   1.00
N426   N     0.61610   0.35480   0.11889   0.01267  Uiso   1.00
O427   O     0.51523   0.41570   0.02589   0.01267  Uiso   1.00
O428   O     0.95262   0.48970   0.02621   0.01267  Uiso   1.00
H429   H     0.70970   0.41475   0.30615   0.01267  Uiso   1.00
H430   H     0.67750   0.45260   0.34040   0.01267  Uiso   1.00
H431   H     0.63185   0.27255   0.34875   0.01267  Uiso   1.00
H432   H     0.66205   0.23555   0.31350   0.01267  Uiso   1.00
C433   C     0.68885   0.32180   0.30606   0.01267  Uiso   1.00
C434   C     0.69350   0.38600   0.31448   0.01267  Uiso   1.00
C435   C     0.67460   0.40835   0.33500   0.01267  Uiso   1.00
C436   C     0.65185   0.36685   0.34755   0.01267  Uiso   1.00
C437   C     0.64725   0.30150   0.33985   0.01267  Uiso   1.00
C438   C     0.66545   0.27950   0.31903   0.01267  Uiso   1.00
C439   C     0.71040   0.29650   0.28419   0.01267  Uiso   1.00
N440   N     0.63390   0.39520   0.36889   0.01267  Uiso   1.00
O441   O     0.73478   0.33430   0.27589   0.01267  Uiso   1.00
O442   O     0.79738   0.26030   0.27621   0.01267  Uiso   1.00
H443   H     0.95970   0.16475   0.05615   0.01267  Uiso   1.00
H444   H     0.92750   0.20260   0.09040   0.01267  Uiso   1.00
H445   H     0.88185   0.02255   0.09875   0.01267  Uiso   1.00
H446   H     0.91205   0.48555   0.06350   0.01267  Uiso   1.00
C447   C     0.93885   0.07180   0.05606   0.01267  Uiso   1.00
C448   C     0.94350   0.13600   0.06448   0.01267  Uiso   1.00
C449   C     0.92460   0.15835   0.08500   0.01267  Uiso   1.00
C450   C     0.90185   0.11685   0.09755   0.01267  Uiso   1.00
C451   C     0.89725   0.05150   0.08985   0.01267  Uiso   1.00
C452   C     0.91545   0.02950   0.06903   0.01267  Uiso   1.00
C453   C     0.96040   0.04650   0.03418   0.01267  Uiso   1.00
N454   N     0.88390   0.14520   0.11889   0.01267  Uiso   1.00
O455   O     0.98478   0.08430   0.02589   0.01267  Uiso   1.00
O456   O     0.54738   0.01030   0.02621   0.01267  Uiso   1.00
Cu457  Cu    0.98055   0.05620   0.25000   0.01267  Uiso   1.00
Cu458  Cu    0.73055   0.30620   0.00000   0.01267  Uiso   1.00
Cu459  Cu    0.51945   0.44380   0.25000   0.01267  Uiso   1.00
Cu460  Cu    0.76945   0.19380   0.00000   0.01267  Uiso   1.00
Cu461  Cu    0.76945   0.30620   0.25000   0.01267  Uiso   1.00
Cu462  Cu    0.51945   0.05620   0.00000   0.01267  Uiso   1.00
Cu463  Cu    0.73055   0.19380   0.25000   0.01267  Uiso   1.00
Cu464  Cu    0.98055   0.44380   0.00000   0.01267  Uiso   1.00
H465   H     0.04030   0.66475   0.30615   0.01267  Uiso   1.00
H466   H     0.07250   0.70260   0.34040   0.01267  Uiso   1.00
H467   H     0.11815   0.52255   0.34875   0.01267  Uiso   1.00
H468   H     0.08795   0.98555   0.31350   0.01267  Uiso   1.00
C469   C     0.06115   0.57180   0.30606   0.01267  Uiso   1.00
C470   C     0.05650   0.63600   0.31448   0.01267  Uiso   1.00
C471   C     0.07540   0.65835   0.33500   0.01267  Uiso   1.00
C472   C     0.09815   0.61685   0.34755   0.01267  Uiso   1.00
C473   C     0.10275   0.55150   0.33985   0.01267  Uiso   1.00
C474   C     0.08455   0.52950   0.31903   0.01267  Uiso   1.00
C475   C     0.03960   0.54650   0.28418   0.01267  Uiso   1.00
N476   N     0.11610   0.64520   0.36889   0.01267  Uiso   1.00
O477   O     0.01522   0.58430   0.27589   0.01267  Uiso   1.00
O478   O     0.45262   0.51030   0.27621   0.01267  Uiso   1.00
H479   H     0.29030   0.91475   0.05615   0.01267  Uiso   1.00
H480   H     0.32250   0.95260   0.09040   0.01267  Uiso   1.00
H481   H     0.36815   0.77255   0.09875   0.01267  Uiso   1.00
H482   H     0.33795   0.73555   0.06350   0.01267  Uiso   1.00
C483   C     0.31115   0.82180   0.05606   0.01267  Uiso   1.00
C484   C     0.30650   0.88600   0.06448   0.01267  Uiso   1.00
C485   C     0.32540   0.90835   0.08500   0.01267  Uiso   1.00
C486   C     0.34815   0.86685   0.09755   0.01267  Uiso   1.00
C487   C     0.35275   0.80150   0.08985   0.01267  Uiso   1.00
C488   C     0.33455   0.77950   0.06903   0.01267  Uiso   1.00
C489   C     0.28960   0.79650   0.03418   0.01267  Uiso   1.00
N490   N     0.36610   0.89520   0.11889   0.01267  Uiso   1.00
O491   O     0.26523   0.83430   0.02589   0.01267  Uiso   1.00
O492   O     0.20262   0.76030   0.02621   0.01267  Uiso   1.00
H493   H     0.45970   0.83525   0.30615   0.01267  Uiso   1.00
H494   H     0.42750   0.79740   0.34040   0.01267  Uiso   1.00
H495   H     0.38185   0.97745   0.34875   0.01267  Uiso   1.00
H496   H     0.41205   0.51445   0.31350   0.01267  Uiso   1.00
C497   C     0.43885   0.92820   0.30606   0.01267  Uiso   1.00
C498   C     0.44350   0.86400   0.31448   0.01267  Uiso   1.00
C499   C     0.42460   0.84165   0.33500   0.01267  Uiso   1.00
C500   C     0.40185   0.88315   0.34755   0.01267  Uiso   1.00
C501   C     0.39725   0.94850   0.33985   0.01267  Uiso   1.00
C502   C     0.41545   0.97050   0.31903   0.01267  Uiso   1.00
C503   C     0.46040   0.95350   0.28419   0.01267  Uiso   1.00
N504   N     0.38390   0.85480   0.36889   0.01267  Uiso   1.00
O505   O     0.48478   0.91570   0.27589   0.01267  Uiso   1.00
O506   O     0.04738   0.98970   0.27621   0.01267  Uiso   1.00
H507   H     0.20970   0.58525   0.05615   0.01267  Uiso   1.00
H508   H     0.17750   0.54740   0.09040   0.01267  Uiso   1.00
H509   H     0.13185   0.72745   0.09875   0.01267  Uiso   1.00
H510   H     0.16205   0.76445   0.06350   0.01267  Uiso   1.00
C511   C     0.18885   0.67820   0.05606   0.01267  Uiso   1.00
C512   C     0.19350   0.61400   0.06448   0.01267  Uiso   1.00
C513   C     0.17460   0.59165   0.08500   0.01267  Uiso   1.00
C514   C     0.15185   0.63315   0.09755   0.01267  Uiso   1.00
C515   C     0.14725   0.69850   0.08985   0.01267  Uiso   1.00
C516   C     0.16545   0.72050   0.06903   0.01267  Uiso   1.00
C517   C     0.21040   0.70350   0.03418   0.01267  Uiso   1.00
N518   N     0.13390   0.60480   0.11889   0.01267  Uiso   1.00
O519   O     0.23478   0.66570   0.02589   0.01267  Uiso   1.00
O520   O     0.29738   0.73970   0.02621   0.01267  Uiso   1.00
H521   H     0.20970   0.91475   0.19385   0.01267  Uiso   1.00
H522   H     0.17750   0.95260   0.15960   0.01267  Uiso   1.00
H523   H     0.13185   0.77255   0.15125   0.01267  Uiso   1.00
H524   H     0.16205   0.73555   0.18650   0.01267  Uiso   1.00
C525   C     0.18885   0.82180   0.19394   0.01267  Uiso   1.00
C526   C     0.19350   0.88600   0.18552   0.01267  Uiso   1.00
C527   C     0.17460   0.90835   0.16500   0.01267  Uiso   1.00
C528   C     0.15185   0.86685   0.15245   0.01267  Uiso   1.00
C529   C     0.14725   0.80150   0.16015   0.01267  Uiso   1.00
C530   C     0.16545   0.77950   0.18097   0.01267  Uiso   1.00
C531   C     0.21040   0.79650   0.21582   0.01267  Uiso   1.00
N532   N     0.13390   0.89520   0.13111   0.01267  Uiso   1.00
O533   O     0.23478   0.83430   0.22411   0.01267  Uiso   1.00
O534   O     0.29738   0.76030   0.22379   0.01267  Uiso   1.00
H535   H     0.45970   0.66475   0.44385   0.01267  Uiso   1.00
H536   H     0.42750   0.70260   0.40960   0.01267  Uiso   1.00
H537   H     0.38185   0.52255   0.40125   0.01267  Uiso   1.00
H538   H     0.41205   0.98555   0.43650   0.01267  Uiso   1.00
C539   C     0.43885   0.57180   0.44394   0.01267  Uiso   1.00
C540   C     0.44350   0.63600   0.43552   0.01267  Uiso   1.00
C541   C     0.42460   0.65835   0.41500   0.01267  Uiso   1.00
C542   C     0.40185   0.61685   0.40245   0.01267  Uiso   1.00
C543   C     0.39725   0.55150   0.41015   0.01267  Uiso   1.00
C544   C     0.41545   0.52950   0.43097   0.01267  Uiso   1.00
C545   C     0.46040   0.54650   0.46582   0.01267  Uiso   1.00
N546   N     0.38390   0.64520   0.38111   0.01267  Uiso   1.00
O547   O     0.48478   0.58430   0.47411   0.01267  Uiso   1.00
O548   O     0.04738   0.51030   0.47379   0.01267  Uiso   1.00
H549   H     0.29030   0.58525   0.19385   0.01267  Uiso   1.00
H550   H     0.32250   0.54740   0.15960   0.01267  Uiso   1.00
H551   H     0.36815   0.72745   0.15125   0.01267  Uiso   1.00
H552   H     0.33795   0.76445   0.18650   0.01267  Uiso   1.00
C553   C     0.31115   0.67820   0.19394   0.01267  Uiso   1.00
C554   C     0.30650   0.61400   0.18552   0.01267  Uiso   1.00
C555   C     0.32540   0.59165   0.16500   0.01267  Uiso   1.00
C556   C     0.34815   0.63315   0.15245   0.01267  Uiso   1.00
C557   C     0.35275   0.69850   0.16015   0.01267  Uiso   1.00
C558   C     0.33455   0.72050   0.18097   0.01267  Uiso   1.00
C559   C     0.28960   0.70350   0.21582   0.01267  Uiso   1.00
N560   N     0.36610   0.60480   0.13111   0.01267  Uiso   1.00
O561   O     0.26522   0.66570   0.22411   0.01267  Uiso   1.00
O562   O     0.20262   0.73970   0.22379   0.01267  Uiso   1.00
H563   H     0.04030   0.83525   0.44385   0.01267  Uiso   1.00
H564   H     0.07250   0.79740   0.40960   0.01267  Uiso   1.00
H565   H     0.11815   0.97745   0.40125   0.01267  Uiso   1.00
H566   H     0.08795   0.51445   0.43650   0.01267  Uiso   1.00
C567   C     0.06115   0.92820   0.44394   0.01267  Uiso   1.00
C568   C     0.05650   0.86400   0.43552   0.01267  Uiso   1.00
C569   C     0.07540   0.84165   0.41500   0.01267  Uiso   1.00
C570   C     0.09815   0.88315   0.40245   0.01267  Uiso   1.00
C571   C     0.10275   0.94850   0.41015   0.01267  Uiso   1.00
C572   C     0.08455   0.97050   0.43097   0.01267  Uiso   1.00
C573   C     0.03960   0.95350   0.46582   0.01267  Uiso   1.00
N574   N     0.11610   0.85480   0.38111   0.01267  Uiso   1.00
O575   O     0.01522   0.91570   0.47411   0.01267  Uiso   1.00
O576   O     0.45262   0.98970   0.47379   0.01267  Uiso   1.00
H577   H     0.45970   0.83525   0.19385   0.01267  Uiso   1.00
H578   H     0.42750   0.79740   0.15960   0.01267  Uiso   1.00
H579   H     0.38185   0.97745   0.15125   0.01267  Uiso   1.00
H580   H     0.41205   0.51445   0.18650   0.01267  Uiso   1.00
C581   C     0.43885   0.92820   0.19394   0.01267  Uiso   1.00
C582   C     0.44350   0.86400   0.18552   0.01267  Uiso   1.00
C583   C     0.42460   0.84165   0.16500   0.01267  Uiso   1.00
C584   C     0.40185   0.88315   0.15245   0.01267  Uiso   1.00
C585   C     0.39725   0.94850   0.16015   0.01267  Uiso   1.00
C586   C     0.41545   0.97050   0.18097   0.01267  Uiso   1.00
C587   C     0.46040   0.95350   0.21582   0.01267  Uiso   1.00
N588   N     0.38390   0.85480   0.13111   0.01267  Uiso   1.00
O589   O     0.48478   0.91570   0.22411   0.01267  Uiso   1.00
O590   O     0.04738   0.98970   0.22379   0.01267  Uiso   1.00
H591   H     0.20970   0.58525   0.44385   0.01267  Uiso   1.00
H592   H     0.17750   0.54740   0.40960   0.01267  Uiso   1.00
H593   H     0.13185   0.72745   0.40125   0.01267  Uiso   1.00
H594   H     0.16205   0.76445   0.43650   0.01267  Uiso   1.00
C595   C     0.18885   0.67820   0.44394   0.01267  Uiso   1.00
C596   C     0.19350   0.61400   0.43552   0.01267  Uiso   1.00
C597   C     0.17460   0.59165   0.41500   0.01267  Uiso   1.00
C598   C     0.15185   0.63315   0.40245   0.01267  Uiso   1.00
C599   C     0.14725   0.69850   0.41015   0.01267  Uiso   1.00
C600   C     0.16545   0.72050   0.43097   0.01267  Uiso   1.00
C601   C     0.21040   0.70350   0.46582   0.01267  Uiso   1.00
N602   N     0.13390   0.60480   0.38111   0.01267  Uiso   1.00
O603   O     0.23478   0.66570   0.47411   0.01267  Uiso   1.00
O604   O     0.29738   0.73970   0.47379   0.01267  Uiso   1.00
H605   H     0.04030   0.66475   0.19385   0.01267  Uiso   1.00
H606   H     0.07250   0.70260   0.15960   0.01267  Uiso   1.00
H607   H     0.11815   0.52255   0.15125   0.01267  Uiso   1.00
H608   H     0.08795   0.98555   0.18650   0.01267  Uiso   1.00
C609   C     0.06115   0.57180   0.19394   0.01267  Uiso   1.00
C610   C     0.05650   0.63600   0.18552   0.01267  Uiso   1.00
C611   C     0.07540   0.65835   0.16500   0.01267  Uiso   1.00
C612   C     0.09815   0.61685   0.15245   0.01267  Uiso   1.00
C613   C     0.10275   0.55150   0.16015   0.01267  Uiso   1.00
C614   C     0.08455   0.52950   0.18097   0.01267  Uiso   1.00
C615   C     0.03960   0.54650   0.21582   0.01267  Uiso   1.00
N616   N     0.11610   0.64520   0.13111   0.01267  Uiso   1.00
O617   O     0.01523   0.58430   0.22411   0.01267  Uiso   1.00
O618   O     0.45262   0.51030   0.22379   0.01267  Uiso   1.00
H619   H     0.29030   0.91475   0.44385   0.01267  Uiso   1.00
H620   H     0.32250   0.95260   0.40960   0.01267  Uiso   1.00
H621   H     0.36815   0.77255   0.40125   0.01267  Uiso   1.00
H622   H     0.33795   0.73555   0.43650   0.01267  Uiso   1.00
C623   C     0.31115   0.82180   0.44394   0.01267  Uiso   1.00
C624   C     0.30650   0.88600   0.43552   0.01267  Uiso   1.00
C625   C     0.32540   0.90835   0.41500   0.01267  Uiso   1.00
C626   C     0.34815   0.86685   0.40245   0.01267  Uiso   1.00
C627   C     0.35275   0.80150   0.41015   0.01267  Uiso   1.00
C628   C     0.33455   0.77950   0.43097   0.01267  Uiso   1.00
C629   C     0.28960   0.79650   0.46582   0.01267  Uiso   1.00
N630   N     0.36610   0.89520   0.38111   0.01267  Uiso   1.00
O631   O     0.26523   0.83430   0.47411   0.01267  Uiso   1.00
O632   O     0.20262   0.76030   0.47379   0.01267  Uiso   1.00
H633   H     0.29030   0.58525   0.30615   0.01267  Uiso   1.00
H634   H     0.32250   0.54740   0.34040   0.01267  Uiso   1.00
H635   H     0.36815   0.72745   0.34875   0.01267  Uiso   1.00
H636   H     0.33795   0.76445   0.31350   0.01267  Uiso   1.00
C637   C     0.31115   0.67820   0.30606   0.01267  Uiso   1.00
C638   C     0.30650   0.61400   0.31448   0.01267  Uiso   1.00
C639   C     0.32540   0.59165   0.33500   0.01267  Uiso   1.00
C640   C     0.34815   0.63315   0.34755   0.01267  Uiso   1.00
C641   C     0.35275   0.69850   0.33985   0.01267  Uiso   1.00
C642   C     0.33455   0.72050   0.31903   0.01267  Uiso   1.00
C643   C     0.28960   0.70350   0.28418   0.01267  Uiso   1.00
N644   N     0.36610   0.60480   0.36889   0.01267  Uiso   1.00
O645   O     0.26523   0.66570   0.27589   0.01267  Uiso   1.00
O646   O     0.20262   0.73970   0.27621   0.01267  Uiso   1.00
H647   H     0.04030   0.83525   0.05615   0.01267  Uiso   1.00
H648   H     0.07250   0.79740   0.09040   0.01267  Uiso   1.00
H649   H     0.11815   0.97745   0.09875   0.01267  Uiso   1.00
H650   H     0.08795   0.51445   0.06350   0.01267  Uiso   1.00
C651   C     0.06115   0.92820   0.05606   0.01267  Uiso   1.00
C652   C     0.05650   0.86400   0.06448   0.01267  Uiso   1.00
C653   C     0.07540   0.84165   0.08500   0.01267  Uiso   1.00
C654   C     0.09815   0.88315   0.09755   0.01267  Uiso   1.00
C655   C     0.10275   0.94850   0.08985   0.01267  Uiso   1.00
C656   C     0.08455   0.97050   0.06903   0.01267  Uiso   1.00
C657   C     0.03960   0.95350   0.03418   0.01267  Uiso   1.00
N658   N     0.11610   0.85480   0.11889   0.01267  Uiso   1.00
O659   O     0.01523   0.91570   0.02589   0.01267  Uiso   1.00
O660   O     0.45262   0.98970   0.02621   0.01267  Uiso   1.00
H661   H     0.20970   0.91475   0.30615   0.01267  Uiso   1.00
H662   H     0.17750   0.95260   0.34040   0.01267  Uiso   1.00
H663   H     0.13185   0.77255   0.34875   0.01267  Uiso   1.00
H664   H     0.16205   0.73555   0.31350   0.01267  Uiso   1.00
C665   C     0.18885   0.82180   0.30606   0.01267  Uiso   1.00
C666   C     0.19350   0.88600   0.31448   0.01267  Uiso   1.00
C667   C     0.17460   0.90835   0.33500   0.01267  Uiso   1.00
C668   C     0.15185   0.86685   0.34755   0.01267  Uiso   1.00
C669   C     0.14725   0.80150   0.33985   0.01267  Uiso   1.00
C670   C     0.16545   0.77950   0.31903   0.01267  Uiso   1.00
C671   C     0.21040   0.79650   0.28419   0.01267  Uiso   1.00
N672   N     0.13390   0.89520   0.36889   0.01267  Uiso   1.00
O673   O     0.23478   0.83430   0.27589   0.01267  Uiso   1.00
O674   O     0.29738   0.76030   0.27621   0.01267  Uiso   1.00
H675   H     0.45970   0.66475   0.05615   0.01267  Uiso   1.00
H676   H     0.42750   0.70260   0.09040   0.01267  Uiso   1.00
H677   H     0.38185   0.52255   0.09875   0.01267  Uiso   1.00
H678   H     0.41205   0.98555   0.06350   0.01267  Uiso   1.00
C679   C     0.43885   0.57180   0.05606   0.01267  Uiso   1.00
C680   C     0.44350   0.63600   0.06448   0.01267  Uiso   1.00
C681   C     0.42460   0.65835   0.08500   0.01267  Uiso   1.00
C682   C     0.40185   0.61685   0.09755   0.01267  Uiso   1.00
C683   C     0.39725   0.55150   0.08985   0.01267  Uiso   1.00
C684   C     0.41545   0.52950   0.06903   0.01267  Uiso   1.00
C685   C     0.46040   0.54650   0.03418   0.01267  Uiso   1.00
N686   N     0.38390   0.64520   0.11889   0.01267  Uiso   1.00
O687   O     0.48478   0.58430   0.02589   0.01267  Uiso   1.00
O688   O     0.04738   0.51030   0.02621   0.01267  Uiso   1.00
Cu689  Cu    0.48055   0.55620   0.25000   0.01267  Uiso   1.00
Cu690  Cu    0.23055   0.80620   0.00000   0.01267  Uiso   1.00
Cu691  Cu    0.01945   0.94380   0.25000   0.01267  Uiso   1.00
Cu692  Cu    0.26945   0.69380   0.00000   0.01267  Uiso   1.00
Cu693  Cu    0.26945   0.80620   0.25000   0.01267  Uiso   1.00
Cu694  Cu    0.01945   0.55620   0.00000   0.01267  Uiso   1.00
Cu695  Cu    0.23055   0.69380   0.25000   0.01267  Uiso   1.00
Cu696  Cu    0.48055   0.94380   0.00000   0.01267  Uiso   1.00
H697   H     0.54030   0.66475   0.30615   0.01267  Uiso   1.00
H698   H     0.57250   0.70260   0.34040   0.01267  Uiso   1.00
H699   H     0.61815   0.52255   0.34875   0.01267  Uiso   1.00
H700   H     0.58795   0.98555   0.31350   0.01267  Uiso   1.00
C701   C     0.56115   0.57180   0.30606   0.01267  Uiso   1.00
C702   C     0.55650   0.63600   0.31448   0.01267  Uiso   1.00
C703   C     0.57540   0.65835   0.33500   0.01267  Uiso   1.00
C704   C     0.59815   0.61685   0.34755   0.01267  Uiso   1.00
C705   C     0.60275   0.55150   0.33985   0.01267  Uiso   1.00
C706   C     0.58455   0.52950   0.31903   0.01267  Uiso   1.00
C707   C     0.53960   0.54650   0.28418   0.01267  Uiso   1.00
N708   N     0.61610   0.64520   0.36889   0.01267  Uiso   1.00
O709   O     0.51522   0.58430   0.27589   0.01267  Uiso   1.00
O710   O     0.95262   0.51030   0.27621   0.01267  Uiso   1.00
H711   H     0.79030   0.91475   0.05615   0.01267  Uiso   1.00
H712   H     0.82250   0.95260   0.09040   0.01267  Uiso   1.00
H713   H     0.86815   0.77255   0.09875   0.01267  Uiso   1.00
H714   H     0.83795   0.73555   0.06350   0.01267  Uiso   1.00
C715   C     0.81115   0.82180   0.05606   0.01267  Uiso   1.00
C716   C     0.80650   0.88600   0.06448   0.01267  Uiso   1.00
C717   C     0.82540   0.90835   0.08500   0.01267  Uiso   1.00
C718   C     0.84815   0.86685   0.09755   0.01267  Uiso   1.00
C719   C     0.85275   0.80150   0.08985   0.01267  Uiso   1.00
C720   C     0.83455   0.77950   0.06903   0.01267  Uiso   1.00
C721   C     0.78960   0.79650   0.03418   0.01267  Uiso   1.00
N722   N     0.86610   0.89520   0.11889   0.01267  Uiso   1.00
O723   O     0.76523   0.83430   0.02589   0.01267  Uiso   1.00
O724   O     0.70262   0.76030   0.02621   0.01267  Uiso   1.00
H725   H     0.95970   0.83525   0.30615   0.01267  Uiso   1.00
H726   H     0.92750   0.79740   0.34040   0.01267  Uiso   1.00
H727   H     0.88185   0.97745   0.34875   0.01267  Uiso   1.00
H728   H     0.91205   0.51445   0.31350   0.01267  Uiso   1.00
C729   C     0.93885   0.92820   0.30606   0.01267  Uiso   1.00
C730   C     0.94350   0.86400   0.31448   0.01267  Uiso   1.00
C731   C     0.92460   0.84165   0.33500   0.01267  Uiso   1.00
C732   C     0.90185   0.88315   0.34755   0.01267  Uiso   1.00
C733   C     0.89725   0.94850   0.33985   0.01267  Uiso   1.00
C734   C     0.91545   0.97050   0.31903   0.01267  Uiso   1.00
C735   C     0.96040   0.95350   0.28419   0.01267  Uiso   1.00
N736   N     0.88390   0.85480   0.36889   0.01267  Uiso   1.00
O737   O     0.98478   0.91570   0.27589   0.01267  Uiso   1.00
O738   O     0.54738   0.98970   0.27621   0.01267  Uiso   1.00
H739   H     0.70970   0.58525   0.05615   0.01267  Uiso   1.00
H740   H     0.67750   0.54740   0.09040   0.01267  Uiso   1.00
H741   H     0.63185   0.72745   0.09875   0.01267  Uiso   1.00
H742   H     0.66205   0.76445   0.06350   0.01267  Uiso   1.00
C743   C     0.68885   0.67820   0.05606   0.01267  Uiso   1.00
C744   C     0.69350   0.61400   0.06448   0.01267  Uiso   1.00
C745   C     0.67460   0.59165   0.08500   0.01267  Uiso   1.00
C746   C     0.65185   0.63315   0.09755   0.01267  Uiso   1.00
C747   C     0.64725   0.69850   0.08985   0.01267  Uiso   1.00
C748   C     0.66545   0.72050   0.06903   0.01267  Uiso   1.00
C749   C     0.71040   0.70350   0.03418   0.01267  Uiso   1.00
N750   N     0.63390   0.60480   0.11889   0.01267  Uiso   1.00
O751   O     0.73478   0.66570   0.02589   0.01267  Uiso   1.00
O752   O     0.79738   0.73970   0.02621   0.01267  Uiso   1.00
H753   H     0.70970   0.91475   0.19385   0.01267  Uiso   1.00
H754   H     0.67750   0.95260   0.15960   0.01267  Uiso   1.00
H755   H     0.63185   0.77255   0.15125   0.01267  Uiso   1.00
H756   H     0.66205   0.73555   0.18650   0.01267  Uiso   1.00
C757   C     0.68885   0.82180   0.19394   0.01267  Uiso   1.00
C758   C     0.69350   0.88600   0.18552   0.01267  Uiso   1.00
C759   C     0.67460   0.90835   0.16500   0.01267  Uiso   1.00
C760   C     0.65185   0.86685   0.15245   0.01267  Uiso   1.00
C761   C     0.64725   0.80150   0.16015   0.01267  Uiso   1.00
C762   C     0.66545   0.77950   0.18097   0.01267  Uiso   1.00
C763   C     0.71040   0.79650   0.21582   0.01267  Uiso   1.00
N764   N     0.63390   0.89520   0.13111   0.01267  Uiso   1.00
O765   O     0.73478   0.83430   0.22411   0.01267  Uiso   1.00
O766   O     0.79738   0.76030   0.22379   0.01267  Uiso   1.00
H767   H     0.95970   0.66475   0.44385   0.01267  Uiso   1.00
H768   H     0.92750   0.70260   0.40960   0.01267  Uiso   1.00
H769   H     0.88185   0.52255   0.40125   0.01267  Uiso   1.00
H770   H     0.91205   0.98555   0.43650   0.01267  Uiso   1.00
C771   C     0.93885   0.57180   0.44394   0.01267  Uiso   1.00
C772   C     0.94350   0.63600   0.43552   0.01267  Uiso   1.00
C773   C     0.92460   0.65835   0.41500   0.01267  Uiso   1.00
C774   C     0.90185   0.61685   0.40245   0.01267  Uiso   1.00
C775   C     0.89725   0.55150   0.41015   0.01267  Uiso   1.00
C776   C     0.91545   0.52950   0.43097   0.01267  Uiso   1.00
C777   C     0.96040   0.54650   0.46582   0.01267  Uiso   1.00
N778   N     0.88390   0.64520   0.38111   0.01267  Uiso   1.00
O779   O     0.98478   0.58430   0.47411   0.01267  Uiso   1.00
O780   O     0.54738   0.51030   0.47379   0.01267  Uiso   1.00
H781   H     0.79030   0.58525   0.19385   0.01267  Uiso   1.00
H782   H     0.82250   0.54740   0.15960   0.01267  Uiso   1.00
H783   H     0.86815   0.72745   0.15125   0.01267  Uiso   1.00
H784   H     0.83795   0.76445   0.18650   0.01267  Uiso   1.00
C785   C     0.81115   0.67820   0.19394   0.01267  Uiso   1.00
C786   C     0.80650   0.61400   0.18552   0.01267  Uiso   1.00
C787   C     0.82540   0.59165   0.16500   0.01267  Uiso   1.00
C788   C     0.84815   0.63315   0.15245   0.01267  Uiso   1.00
C789   C     0.85275   0.69850   0.16015   0.01267  Uiso   1.00
C790   C     0.83455   0.72050   0.18097   0.01267  Uiso   1.00
C791   C     0.78960   0.70350   0.21582   0.01267  Uiso   1.00
N792   N     0.86610   0.60480   0.13111   0.01267  Uiso   1.00
O793   O     0.76522   0.66570   0.22411   0.01267  Uiso   1.00
O794   O     0.70262   0.73970   0.22379   0.01267  Uiso   1.00
H795   H     0.54030   0.83525   0.44385   0.01267  Uiso   1.00
H796   H     0.57250   0.79740   0.40960   0.01267  Uiso   1.00
H797   H     0.61815   0.97745   0.40125   0.01267  Uiso   1.00
H798   H     0.58795   0.51445   0.43650   0.01267  Uiso   1.00
C799   C     0.56115   0.92820   0.44394   0.01267  Uiso   1.00
C800   C     0.55650   0.86400   0.43552   0.01267  Uiso   1.00
C801   C     0.57540   0.84165   0.41500   0.01267  Uiso   1.00
C802   C     0.59815   0.88315   0.40245   0.01267  Uiso   1.00
C803   C     0.60275   0.94850   0.41015   0.01267  Uiso   1.00
C804   C     0.58455   0.97050   0.43097   0.01267  Uiso   1.00
C805   C     0.53960   0.95350   0.46582   0.01267  Uiso   1.00
N806   N     0.61610   0.85480   0.38111   0.01267  Uiso   1.00
O807   O     0.51522   0.91570   0.47411   0.01267  Uiso   1.00
O808   O     0.95262   0.98970   0.47379   0.01267  Uiso   1.00
H809   H     0.95970   0.83525   0.19385   0.01267  Uiso   1.00
H810   H     0.92750   0.79740   0.15960   0.01267  Uiso   1.00
H811   H     0.88185   0.97745   0.15125   0.01267  Uiso   1.00
H812   H     0.91205   0.51445   0.18650   0.01267  Uiso   1.00
C813   C     0.93885   0.92820   0.19394   0.01267  Uiso   1.00
C814   C     0.94350   0.86400   0.18552   0.01267  Uiso   1.00
C815   C     0.92460   0.84165   0.16500   0.01267  Uiso   1.00
C816   C     0.90185   0.88315   0.15245   0.01267  Uiso   1.00
C817   C     0.89725   0.94850   0.16015   0.01267  Uiso   1.00
C818   C     0.91545   0.97050   0.18097   0.01267  Uiso   1.00
C819   C     0.96040   0.95350   0.21582   0.01267  Uiso   1.00
N820   N     0.88390   0.85480   0.13111   0.01267  Uiso   1.00
O821   O     0.98478   0.91570   0.22411   0.01267  Uiso   1.00
O822   O     0.54738   0.98970   0.22379   0.01267  Uiso   1.00
H823   H     0.70970   0.58525   0.44385   0.01267  Uiso   1.00
H824   H     0.67750   0.54740   0.40960   0.01267  Uiso   1.00
H825   H     0.63185   0.72745   0.40125   0.01267  Uiso   1.00
H826   H     0.66205   0.76445   0.43650   0.01267  Uiso   1.00
C827   C     0.68885   0.67820   0.44394   0.01267  Uiso   1.00
C828   C     0.69350   0.61400   0.43552   0.01267  Uiso   1.00
C829   C     0.67460   0.59165   0.41500   0.01267  Uiso   1.00
C830   C     0.65185   0.63315   0.40245   0.01267  Uiso   1.00
C831   C     0.64725   0.69850   0.41015   0.01267  Uiso   1.00
C832   C     0.66545   0.72050   0.43097   0.01267  Uiso   1.00
C833   C     0.71040   0.70350   0.46582   0.01267  Uiso   1.00
N834   N     0.63390   0.60480   0.38111   0.01267  Uiso   1.00
O835   O     0.73478   0.66570   0.47411   0.01267  Uiso   1.00
O836   O     0.79738   0.73970   0.47379   0.01267  Uiso   1.00
H837   H     0.54030   0.66475   0.19385   0.01267  Uiso   1.00
H838   H     0.57250   0.70260   0.15960   0.01267  Uiso   1.00
H839   H     0.61815   0.52255   0.15125   0.01267  Uiso   1.00
H840   H     0.58795   0.98555   0.18650   0.01267  Uiso   1.00
C841   C     0.56115   0.57180   0.19394   0.01267  Uiso   1.00
C842   C     0.55650   0.63600   0.18552   0.01267  Uiso   1.00
C843   C     0.57540   0.65835   0.16500   0.01267  Uiso   1.00
C844   C     0.59815   0.61685   0.15245   0.01267  Uiso   1.00
C845   C     0.60275   0.55150   0.16015   0.01267  Uiso   1.00
C846   C     0.58455   0.52950   0.18097   0.01267  Uiso   1.00
C847   C     0.53960   0.54650   0.21582   0.01267  Uiso   1.00
N848   N     0.61610   0.64520   0.13111   0.01267  Uiso   1.00
O849   O     0.51523   0.58430   0.22411   0.01267  Uiso   1.00
O850   O     0.95262   0.51030   0.22379   0.01267  Uiso   1.00
H851   H     0.79030   0.91475   0.44385   0.01267  Uiso   1.00
H852   H     0.82250   0.95260   0.40960   0.01267  Uiso   1.00
H853   H     0.86815   0.77255   0.40125   0.01267  Uiso   1.00
H854   H     0.83795   0.73555   0.43650   0.01267  Uiso   1.00
C855   C     0.81115   0.82180   0.44394   0.01267  Uiso   1.00
C856   C     0.80650   0.88600   0.43552   0.01267  Uiso   1.00
C857   C     0.82540   0.90835   0.41500   0.01267  Uiso   1.00
C858   C     0.84815   0.86685   0.40245   0.01267  Uiso   1.00
C859   C     0.85275   0.80150   0.41015   0.01267  Uiso   1.00
C860   C     0.83455   0.77950   0.43097   0.01267  Uiso   1.00
C861   C     0.78960   0.79650   0.46582   0.01267  Uiso   1.00
N862   N     0.86610   0.89520   0.38111   0.01267  Uiso   1.00
O863   O     0.76523   0.83430   0.47411   0.01267  Uiso   1.00
O864   O     0.70262   0.76030   0.47379   0.01267  Uiso   1.00
H865   H     0.79030   0.58525   0.30615   0.01267  Uiso   1.00
H866   H     0.82250   0.54740   0.34040   0.01267  Uiso   1.00
H867   H     0.86815   0.72745   0.34875   0.01267  Uiso   1.00
H868   H     0.83795   0.76445   0.31350   0.01267  Uiso   1.00
C869   C     0.81115   0.67820   0.30606   0.01267  Uiso   1.00
C870   C     0.80650   0.61400   0.31448   0.01267  Uiso   1.00
C871   C     0.82540   0.59165   0.33500   0.01267  Uiso   1.00
C872   C     0.84815   0.63315   0.34755   0.01267  Uiso   1.00
C873   C     0.85275   0.69850   0.33985   0.01267  Uiso   1.00
C874   C     0.83455   0.72050   0.31903   0.01267  Uiso   1.00
C875   C     0.78960   0.70350   0.28418   0.01267  Uiso   1.00
N876   N     0.86610   0.60480   0.36889   0.01267  Uiso   1.00
O877   O     0.76523   0.66570   0.27589   0.01267  Uiso   1.00
O878   O     0.70262   0.73970   0.27621   0.01267  Uiso   1.00
H879   H     0.54030   0.83525   0.05615   0.01267  Uiso   1.00
H880   H     0.57250   0.79740   0.09040   0.01267  Uiso   1.00
H881   H     0.61815   0.97745   0.09875   0.01267  Uiso   1.00
H882   H     0.58795   0.51445   0.06350   0.01267  Uiso   1.00
C883   C     0.56115   0.92820   0.05606   0.01267  Uiso   1.00
C884   C     0.55650   0.86400   0.06448   0.01267  Uiso   1.00
C885   C     0.57540   0.84165   0.08500   0.01267  Uiso   1.00
C886   C     0.59815   0.88315   0.09755   0.01267  Uiso   1.00
C887   C     0.60275   0.94850   0.08985   0.01267  Uiso   1.00
C888   C     0.58455   0.97050   0.06903   0.01267  Uiso   1.00
C889   C     0.53960   0.95350   0.03418   0.01267  Uiso   1.00
N890   N     0.61610   0.85480   0.11889   0.01267  Uiso   1.00
O891   O     0.51523   0.91570   0.02589   0.01267  Uiso   1.00
O892   O     0.95262   0.98970   0.02621   0.01267  Uiso   1.00
H893   H     0.70970   0.91475   0.30615   0.01267  Uiso   1.00
H894   H     0.67750   0.95260   0.34040   0.01267  Uiso   1.00
H895   H     0.63185   0.77255   0.34875   0.01267  Uiso   1.00
H896   H     0.66205   0.73555   0.31350   0.01267  Uiso   1.00
C897   C     0.68885   0.82180   0.30606   0.01267  Uiso   1.00
C898   C     0.69350   0.88600   0.31448   0.01267  Uiso   1.00
C899   C     0.67460   0.90835   0.33500   0.01267  Uiso   1.00
C900   C     0.65185   0.86685   0.34755   0.01267  Uiso   1.00
C901   C     0.64725   0.80150   0.33985   0.01267  Uiso   1.00
C902   C     0.66545   0.77950   0.31903   0.01267  Uiso   1.00
C903   C     0.71040   0.79650   0.28419   0.01267  Uiso   1.00
N904   N     0.63390   0.89520   0.36889   0.01267  Uiso   1.00
O905   O     0.73478   0.83430   0.27589   0.01267  Uiso   1.00
O906   O     0.79738   0.76030   0.27621   0.01267  Uiso   1.00
H907   H     0.95970   0.66475   0.05615   0.01267  Uiso   1.00
H908   H     0.92750   0.70260   0.09040   0.01267  Uiso   1.00
H909   H     0.88185   0.52255   0.09875   0.01267  Uiso   1.00
H910   H     0.91205   0.98555   0.06350   0.01267  Uiso   1.00
C911   C     0.93885   0.57180   0.05606   0.01267  Uiso   1.00
C912   C     0.94350   0.63600   0.06448   0.01267  Uiso   1.00
C913   C     0.92460   0.65835   0.08500   0.01267  Uiso   1.00
C914   C     0.90185   0.61685   0.09755   0.01267  Uiso   1.00
C915   C     0.89725   0.55150   0.08985   0.01267  Uiso   1.00
C916   C     0.91545   0.52950   0.06903   0.01267  Uiso   1.00
C917   C     0.96040   0.54650   0.03418   0.01267  Uiso   1.00
N918   N     0.88390   0.64520   0.11889   0.01267  Uiso   1.00
O919   O     0.98478   0.58430   0.02589   0.01267  Uiso   1.00
O920   O     0.54738   0.51030   0.02621   0.01267  Uiso   1.00
Cu921  Cu    0.98055   0.55620   0.25000   0.01267  Uiso   1.00
Cu922  Cu    0.73055   0.80620   0.00000   0.01267  Uiso   1.00
Cu923  Cu    0.51945   0.94380   0.25000   0.01267  Uiso   1.00
Cu924  Cu    0.76945   0.69380   0.00000   0.01267  Uiso   1.00
Cu925  Cu    0.76945   0.80620   0.25000   0.01267  Uiso   1.00
Cu926  Cu    0.51945   0.55620   0.00000   0.01267  Uiso   1.00
Cu927  Cu    0.73055   0.69380   0.25000   0.01267  Uiso   1.00
Cu928  Cu    0.98055   0.94380   0.00000   0.01267  Uiso   1.00
H929   H     0.04030   0.16475   0.80615   0.01267  Uiso   1.00
H930   H     0.07250   0.20260   0.84040   0.01267  Uiso   1.00
H931   H     0.11815   0.02255   0.84875   0.01267  Uiso   1.00
H932   H     0.08795   0.48555   0.81350   0.01267  Uiso   1.00
C933   C     0.06115   0.07180   0.80606   0.01267  Uiso   1.00
C934   C     0.05650   0.13600   0.81448   0.01267  Uiso   1.00
C935   C     0.07540   0.15835   0.83500   0.01267  Uiso   1.00
C936   C     0.09815   0.11685   0.84755   0.01267  Uiso   1.00
C937   C     0.10275   0.05150   0.83985   0.01267  Uiso   1.00
C938   C     0.08455   0.02950   0.81903   0.01267  Uiso   1.00
C939   C     0.03960   0.04650   0.78419   0.01267  Uiso   1.00
N940   N     0.11610   0.14520   0.86889   0.01267  Uiso   1.00
O941   O     0.01522   0.08430   0.77589   0.01267  Uiso   1.00
O942   O     0.45262   0.01030   0.77621   0.01267  Uiso   1.00
H943   H     0.29030   0.41475   0.55615   0.01267  Uiso   1.00
H944   H     0.32250   0.45260   0.59040   0.01267  Uiso   1.00
H945   H     0.36815   0.27255   0.59875   0.01267  Uiso   1.00
H946   H     0.33795   0.23555   0.56350   0.01267  Uiso   1.00
C947   C     0.31115   0.32180   0.55606   0.01267  Uiso   1.00
C948   C     0.30650   0.38600   0.56448   0.01267  Uiso   1.00
C949   C     0.32540   0.40835   0.58500   0.01267  Uiso   1.00
C950   C     0.34815   0.36685   0.59755   0.01267  Uiso   1.00
C951   C     0.35275   0.30150   0.58985   0.01267  Uiso   1.00
C952   C     0.33455   0.27950   0.56903   0.01267  Uiso   1.00
C953   C     0.28960   0.29650   0.53419   0.01267  Uiso   1.00
N954   N     0.36610   0.39520   0.61889   0.01267  Uiso   1.00
O955   O     0.26523   0.33430   0.52589   0.01267  Uiso   1.00
O956   O     0.20262   0.26030   0.52621   0.01267  Uiso   1.00
H957   H     0.45970   0.33525   0.80615   0.01267  Uiso   1.00
H958   H     0.42750   0.29740   0.84040   0.01267  Uiso   1.00
H959   H     0.38185   0.47745   0.84875   0.01267  Uiso   1.00
H960   H     0.41205   0.01445   0.81350   0.01267  Uiso   1.00
C961   C     0.43885   0.42820   0.80606   0.01267  Uiso   1.00
C962   C     0.44350   0.36400   0.81448   0.01267  Uiso   1.00
C963   C     0.42460   0.34165   0.83500   0.01267  Uiso   1.00
C964   C     0.40185   0.38315   0.84755   0.01267  Uiso   1.00
C965   C     0.39725   0.44850   0.83985   0.01267  Uiso   1.00
C966   C     0.41545   0.47050   0.81904   0.01267  Uiso   1.00
C967   C     0.46040   0.45350   0.78418   0.01267  Uiso   1.00
N968   N     0.38390   0.35480   0.86889   0.01267  Uiso   1.00
O969   O     0.48478   0.41570   0.77589   0.01267  Uiso   1.00
O970   O     0.04738   0.48970   0.77621   0.01267  Uiso   1.00
H971   H     0.20970   0.08525   0.55615   0.01267  Uiso   1.00
H972   H     0.17750   0.04740   0.59040   0.01267  Uiso   1.00
H973   H     0.13185   0.22745   0.59875   0.01267  Uiso   1.00
H974   H     0.16205   0.26445   0.56350   0.01267  Uiso   1.00
C975   C     0.18885   0.17820   0.55606   0.01267  Uiso   1.00
C976   C     0.19350   0.11400   0.56448   0.01267  Uiso   1.00
C977   C     0.17460   0.09165   0.58500   0.01267  Uiso   1.00
C978   C     0.15185   0.13315   0.59755   0.01267  Uiso   1.00
C979   C     0.14725   0.19850   0.58985   0.01267  Uiso   1.00
C980   C     0.16545   0.22050   0.56903   0.01267  Uiso   1.00
C981   C     0.21040   0.20350   0.53419   0.01267  Uiso   1.00
N982   N     0.13390   0.10480   0.61889   0.01267  Uiso   1.00
O983   O     0.23478   0.16570   0.52589   0.01267  Uiso   1.00
O984   O     0.29738   0.23970   0.52621   0.01267  Uiso   1.00
H985   H     0.20970   0.41475   0.69385   0.01267  Uiso   1.00
H986   H     0.17750   0.45260   0.65960   0.01267  Uiso   1.00
H987   H     0.13185   0.27255   0.65125   0.01267  Uiso   1.00
H988   H     0.16205   0.23555   0.68650   0.01267  Uiso   1.00
C989   C     0.18885   0.32180   0.69394   0.01267  Uiso   1.00
C990   C     0.19350   0.38600   0.68552   0.01267  Uiso   1.00
C991   C     0.17460   0.40835   0.66500   0.01267  Uiso   1.00
C992   C     0.15185   0.36685   0.65245   0.01267  Uiso   1.00
C993   C     0.14725   0.30150   0.66015   0.01267  Uiso   1.00
C994   C     0.16545   0.27950   0.68097   0.01267  Uiso   1.00
C995   C     0.21040   0.29650   0.71582   0.01267  Uiso   1.00
N996   N     0.13390   0.39520   0.63111   0.01267  Uiso   1.00
O997   O     0.23478   0.33430   0.72411   0.01267  Uiso   1.00
O998   O     0.29738   0.26030   0.72379   0.01267  Uiso   1.00
H999   H     0.45970   0.16475   0.94385   0.01267  Uiso   1.00
H1000  H     0.42750   0.20260   0.90960   0.01267  Uiso   1.00
H1001  H     0.38185   0.02255   0.90125   0.01267  Uiso   1.00
H1002  H     0.41205   0.48555   0.93650   0.01267  Uiso   1.00
C1003  C     0.43885   0.07180   0.94394   0.01267  Uiso   1.00
C1004  C     0.44350   0.13600   0.93552   0.01267  Uiso   1.00
C1005  C     0.42460   0.15835   0.91500   0.01267  Uiso   1.00
C1006  C     0.40185   0.11685   0.90245   0.01267  Uiso   1.00
C1007  C     0.39725   0.05150   0.91015   0.01267  Uiso   1.00
C1008  C     0.41545   0.02950   0.93097   0.01267  Uiso   1.00
C1009  C     0.46040   0.04650   0.96582   0.01267  Uiso   1.00
N1010  N     0.38390   0.14520   0.88111   0.01267  Uiso   1.00
O1011  O     0.48478   0.08430   0.97411   0.01267  Uiso   1.00
O1012  O     0.04738   0.01030   0.97379   0.01267  Uiso   1.00
H1013  H     0.29030   0.08525   0.69385   0.01267  Uiso   1.00
H1014  H     0.32250   0.04740   0.65960   0.01267  Uiso   1.00
H1015  H     0.36815   0.22745   0.65125   0.01267  Uiso   1.00
H1016  H     0.33795   0.26445   0.68650   0.01267  Uiso   1.00
C1017  C     0.31115   0.17820   0.69394   0.01267  Uiso   1.00
C1018  C     0.30650   0.11400   0.68552   0.01267  Uiso   1.00
C1019  C     0.32540   0.09165   0.66500   0.01267  Uiso   1.00
C1020  C     0.34815   0.13315   0.65245   0.01267  Uiso   1.00
C1021  C     0.35275   0.19850   0.66015   0.01267  Uiso   1.00
C1022  C     0.33455   0.22050   0.68097   0.01267  Uiso   1.00
C1023  C     0.28960   0.20350   0.71582   0.01267  Uiso   1.00
N1024  N     0.36610   0.10480   0.63111   0.01267  Uiso   1.00
O1025  O     0.26522   0.16570   0.72411   0.01267  Uiso   1.00
O1026  O     0.20262   0.23970   0.72379   0.01267  Uiso   1.00
H1027  H     0.04030   0.33525   0.94385   0.01267  Uiso   1.00
H1028  H     0.07250   0.29740   0.90960   0.01267  Uiso   1.00
H1029  H     0.11815   0.47745   0.90125   0.01267  Uiso   1.00
H1030  H     0.08795   0.01445   0.93650   0.01267  Uiso   1.00
C1031  C     0.06115   0.42820   0.94394   0.01267  Uiso   1.00
C1032  C     0.05650   0.36400   0.93552   0.01267  Uiso   1.00
C1033  C     0.07540   0.34165   0.91500   0.01267  Uiso   1.00
C1034  C     0.09815   0.38315   0.90245   0.01267  Uiso   1.00
C1035  C     0.10275   0.44850   0.91015   0.01267  Uiso   1.00
C1036  C     0.08455   0.47050   0.93097   0.01267  Uiso   1.00
C1037  C     0.03960   0.45350   0.96582   0.01267  Uiso   1.00
N1038  N     0.11610   0.35480   0.88111   0.01267  Uiso   1.00
O1039  O     0.01522   0.41570   0.97411   0.01267  Uiso   1.00
O1040  O     0.45262   0.48970   0.97379   0.01267  Uiso   1.00
H1041  H     0.45970   0.33525   0.69385   0.01267  Uiso   1.00
H1042  H     0.42750   0.29740   0.65960   0.01267  Uiso   1.00
H1043  H     0.38185   0.47745   0.65125   0.01267  Uiso   1.00
H1044  H     0.41205   0.01445   0.68650   0.01267  Uiso   1.00
C1045  C     0.43885   0.42820   0.69394   0.01267  Uiso   1.00
C1046  C     0.44350   0.36400   0.68552   0.01267  Uiso   1.00
C1047  C     0.42460   0.34165   0.66500   0.01267  Uiso   1.00
C1048  C     0.40185   0.38315   0.65245   0.01267  Uiso   1.00
C1049  C     0.39725   0.44850   0.66015   0.01267  Uiso   1.00
C1050  C     0.41545   0.47050   0.68097   0.01267  Uiso   1.00
C1051  C     0.46040   0.45350   0.71582   0.01267  Uiso   1.00
N1052  N     0.38390   0.35480   0.63111   0.01267  Uiso   1.00
O1053  O     0.48478   0.41570   0.72411   0.01267  Uiso   1.00
O1054  O     0.04738   0.48970   0.72379   0.01267  Uiso   1.00
H1055  H     0.20970   0.08525   0.94385   0.01267  Uiso   1.00
H1056  H     0.17750   0.04740   0.90960   0.01267  Uiso   1.00
H1057  H     0.13185   0.22745   0.90125   0.01267  Uiso   1.00
H1058  H     0.16205   0.26445   0.93650   0.01267  Uiso   1.00
C1059  C     0.18885   0.17820   0.94394   0.01267  Uiso   1.00
C1060  C     0.19350   0.11400   0.93552   0.01267  Uiso   1.00
C1061  C     0.17460   0.09165   0.91500   0.01267  Uiso   1.00
C1062  C     0.15185   0.13315   0.90245   0.01267  Uiso   1.00
C1063  C     0.14725   0.19850   0.91015   0.01267  Uiso   1.00
C1064  C     0.16545   0.22050   0.93097   0.01267  Uiso   1.00
C1065  C     0.21040   0.20350   0.96582   0.01267  Uiso   1.00
N1066  N     0.13390   0.10480   0.88111   0.01267  Uiso   1.00
O1067  O     0.23478   0.16570   0.97411   0.01267  Uiso   1.00
O1068  O     0.29738   0.23970   0.97379   0.01267  Uiso   1.00
H1069  H     0.04030   0.16475   0.69385   0.01267  Uiso   1.00
H1070  H     0.07250   0.20260   0.65960   0.01267  Uiso   1.00
H1071  H     0.11815   0.02255   0.65125   0.01267  Uiso   1.00
H1072  H     0.08795   0.48555   0.68650   0.01267  Uiso   1.00
C1073  C     0.06115   0.07180   0.69394   0.01267  Uiso   1.00
C1074  C     0.05650   0.13600   0.68552   0.01267  Uiso   1.00
C1075  C     0.07540   0.15835   0.66500   0.01267  Uiso   1.00
C1076  C     0.09815   0.11685   0.65245   0.01267  Uiso   1.00
C1077  C     0.10275   0.05150   0.66015   0.01267  Uiso   1.00
C1078  C     0.08455   0.02950   0.68097   0.01267  Uiso   1.00
C1079  C     0.03960   0.04650   0.71582   0.01267  Uiso   1.00
N1080  N     0.11610   0.14520   0.63111   0.01267  Uiso   1.00
O1081  O     0.01523   0.08430   0.72411   0.01267  Uiso   1.00
O1082  O     0.45262   0.01030   0.72379   0.01267  Uiso   1.00
H1083  H     0.29030   0.41475   0.94385   0.01267  Uiso   1.00
H1084  H     0.32250   0.45260   0.90960   0.01267  Uiso   1.00
H1085  H     0.36815   0.27255   0.90125   0.01267  Uiso   1.00
H1086  H     0.33795   0.23555   0.93650   0.01267  Uiso   1.00
C1087  C     0.31115   0.32180   0.94394   0.01267  Uiso   1.00
C1088  C     0.30650   0.38600   0.93552   0.01267  Uiso   1.00
C1089  C     0.32540   0.40835   0.91500   0.01267  Uiso   1.00
C1090  C     0.34815   0.36685   0.90245   0.01267  Uiso   1.00
C1091  C     0.35275   0.30150   0.91015   0.01267  Uiso   1.00
C1092  C     0.33455   0.27950   0.93097   0.01267  Uiso   1.00
C1093  C     0.28960   0.29650   0.96582   0.01267  Uiso   1.00
N1094  N     0.36610   0.39520   0.88111   0.01267  Uiso   1.00
O1095  O     0.26523   0.33430   0.97411   0.01267  Uiso   1.00
O1096  O     0.20262   0.26030   0.97379   0.01267  Uiso   1.00
H1097  H     0.29030   0.08525   0.80615   0.01267  Uiso   1.00
H1098  H     0.32250   0.04740   0.84040   0.01267  Uiso   1.00
H1099  H     0.36815   0.22745   0.84875   0.01267  Uiso   1.00
H1100  H     0.33795   0.26445   0.81350   0.01267  Uiso   1.00
C1101  C     0.31115   0.17820   0.80606   0.01267  Uiso   1.00
C1102  C     0.30650   0.11400   0.81448   0.01267  Uiso   1.00
C1103  C     0.32540   0.09165   0.83500   0.01267  Uiso   1.00
C1104  C     0.34815   0.13315   0.84755   0.01267  Uiso   1.00
C1105  C     0.35275   0.19850   0.83985   0.01267  Uiso   1.00
C1106  C     0.33455   0.22050   0.81903   0.01267  Uiso   1.00
C1107  C     0.28960   0.20350   0.78418   0.01267  Uiso   1.00
N1108  N     0.36610   0.10480   0.86889   0.01267  Uiso   1.00
O1109  O     0.26523   0.16570   0.77589   0.01267  Uiso   1.00
O1110  O     0.20262   0.23970   0.77621   0.01267  Uiso   1.00
H1111  H     0.04030   0.33525   0.55615   0.01267  Uiso   1.00
H1112  H     0.07250   0.29740   0.59040   0.01267  Uiso   1.00
H1113  H     0.11815   0.47745   0.59875   0.01267  Uiso   1.00
H1114  H     0.08795   0.01445   0.56350   0.01267  Uiso   1.00
C1115  C     0.06115   0.42820   0.55606   0.01267  Uiso   1.00
C1116  C     0.05650   0.36400   0.56448   0.01267  Uiso   1.00
C1117  C     0.07540   0.34165   0.58500   0.01267  Uiso   1.00
C1118  C     0.09815   0.38315   0.59755   0.01267  Uiso   1.00
C1119  C     0.10275   0.44850   0.58985   0.01267  Uiso   1.00
C1120  C     0.08455   0.47050   0.56903   0.01267  Uiso   1.00
C1121  C     0.03960   0.45350   0.53418   0.01267  Uiso   1.00
N1122  N     0.11610   0.35480   0.61889   0.01267  Uiso   1.00
O1123  O     0.01523   0.41570   0.52589   0.01267  Uiso   1.00
O1124  O     0.45262   0.48970   0.52621   0.01267  Uiso   1.00
H1125  H     0.20970   0.41475   0.80615   0.01267  Uiso   1.00
H1126  H     0.17750   0.45260   0.84040   0.01267  Uiso   1.00
H1127  H     0.13185   0.27255   0.84875   0.01267  Uiso   1.00
H1128  H     0.16205   0.23555   0.81350   0.01267  Uiso   1.00
C1129  C     0.18885   0.32180   0.80606   0.01267  Uiso   1.00
C1130  C     0.19350   0.38600   0.81448   0.01267  Uiso   1.00
C1131  C     0.17460   0.40835   0.83500   0.01267  Uiso   1.00
C1132  C     0.15185   0.36685   0.84755   0.01267  Uiso   1.00
C1133  C     0.14725   0.30150   0.83985   0.01267  Uiso   1.00
C1134  C     0.16545   0.27950   0.81903   0.01267  Uiso   1.00
C1135  C     0.21040   0.29650   0.78419   0.01267  Uiso   1.00
N1136  N     0.13390   0.39520   0.86889   0.01267  Uiso   1.00
O1137  O     0.23478   0.33430   0.77589   0.01267  Uiso   1.00
O1138  O     0.29738   0.26030   0.77621   0.01267  Uiso   1.00
H1139  H     0.45970   0.16475   0.55615   0.01267  Uiso   1.00
H1140  H     0.42750   0.20260   0.59040   0.01267  Uiso   1.00
H1141  H     0.38185   0.02255   0.59875   0.01267  Uiso   1.00
H1142  H     0.41205   0.48555   0.56350   0.01267  Uiso   1.00
C1143  C     0.43885   0.07180   0.55606   0.01267  Uiso   1.00
C1144  C     0.44350   0.13600   0.56448   0.01267  Uiso   1.00
C1145  C     0.42460   0.15835   0.58500   0.01267  Uiso   1.00
C1146  C     0.40185   0.11685   0.59755   0.01267  Uiso   1.00
C1147  C     0.39725   0.05150   0.58985   0.01267  Uiso   1.00
C1148  C     0.41545   0.02950   0.56903   0.01267  Uiso   1.00
C1149  C     0.46040   0.04650   0.53419   0.01267  Uiso   1.00
N1150  N     0.38390   0.14520   0.61889   0.01267  Uiso   1.00
O1151  O     0.48478   0.08430   0.52589   0.01267  Uiso   1.00
O1152  O     0.04738   0.01030   0.52621   0.01267  Uiso   1.00
Cu1153 Cu    0.48055   0.05620   0.75000   0.01267  Uiso   1.00
Cu1154 Cu    0.23055   0.30620   0.50000   0.01267  Uiso   1.00
Cu1155 Cu    0.01945   0.44380   0.75000   0.01267  Uiso   1.00
Cu1156 Cu    0.26945   0.19380   0.50000   0.01267  Uiso   1.00
Cu1157 Cu    0.26945   0.30620   0.75000   0.01267  Uiso   1.00
Cu1158 Cu    0.01945   0.05620   0.50000   0.01267  Uiso   1.00
Cu1159 Cu    0.23055   0.19380   0.75000   0.01267  Uiso   1.00
Cu1160 Cu    0.48055   0.44380   0.50000   0.01267  Uiso   1.00
H1161  H     0.54030   0.16475   0.80615   0.01267  Uiso   1.00
H1162  H     0.57250   0.20260   0.84040   0.01267  Uiso   1.00
H1163  H     0.61815   0.02255   0.84875   0.01267  Uiso   1.00
H1164  H     0.58795   0.48555   0.81350   0.01267  Uiso   1.00
C1165  C     0.56115   0.07180   0.80606   0.01267  Uiso   1.00
C1166  C     0.55650   0.13600   0.81448   0.01267  Uiso   1.00
C1167  C     0.57540   0.15835   0.83500   0.01267  Uiso   1.00
C1168  C     0.59815   0.11685   0.84755   0.01267  Uiso   1.00
C1169  C     0.60275   0.05150   0.83985   0.01267  Uiso   1.00
C1170  C     0.58455   0.02950   0.81903   0.01267  Uiso   1.00
C1171  C     0.53960   0.04650   0.78418   0.01267  Uiso   1.00
N1172  N     0.61610   0.14520   0.86889   0.01267  Uiso   1.00
O1173  O     0.51522   0.08430   0.77589   0.01267  Uiso   1.00
O1174  O     0.95262   0.01030   0.77621   0.01267  Uiso   1.00
H1175  H     0.79030   0.41475   0.55615   0.01267  Uiso   1.00
H1176  H     0.82250   0.45260   0.59040   0.01267  Uiso   1.00
H1177  H     0.86815   0.27255   0.59875   0.01267  Uiso   1.00
H1178  H     0.83795   0.23555   0.56350   0.01267  Uiso   1.00
C1179  C     0.81115   0.32180   0.55606   0.01267  Uiso   1.00
C1180  C     0.80650   0.38600   0.56448   0.01267  Uiso   1.00
C1181  C     0.82540   0.40835   0.58500   0.01267  Uiso   1.00
C1182  C     0.84815   0.36685   0.59755   0.01267  Uiso   1.00
C1183  C     0.85275   0.30150   0.58985   0.01267  Uiso   1.00
C1184  C     0.83455   0.27950   0.56903   0.01267  Uiso   1.00
C1185  C     0.78960   0.29650   0.53418   0.01267  Uiso   1.00
N1186  N     0.86610   0.39520   0.61889   0.01267  Uiso   1.00
O1187  O     0.76523   0.33430   0.52589   0.01267  Uiso   1.00
O1188  O     0.70262   0.26030   0.52621   0.01267  Uiso   1.00
H1189  H     0.95970   0.33525   0.80615   0.01267  Uiso   1.00
H1190  H     0.92750   0.29740   0.84040   0.01267  Uiso   1.00
H1191  H     0.88185   0.47745   0.84875   0.01267  Uiso   1.00
H1192  H     0.91205   0.01445   0.81350   0.01267  Uiso   1.00
C1193  C     0.93885   0.42820   0.80606   0.01267  Uiso   1.00
C1194  C     0.94350   0.36400   0.81448   0.01267  Uiso   1.00
C1195  C     0.92460   0.34165   0.83500   0.01267  Uiso   1.00
C1196  C     0.90185   0.38315   0.84755   0.01267  Uiso   1.00
C1197  C     0.89725   0.44850   0.83985   0.01267  Uiso   1.00
C1198  C     0.91545   0.47050   0.81904   0.01267  Uiso   1.00
C1199  C     0.96040   0.45350   0.78419   0.01267  Uiso   1.00
N1200  N     0.88390   0.35480   0.86889   0.01267  Uiso   1.00
O1201  O     0.98478   0.41570   0.77589   0.01267  Uiso   1.00
O1202  O     0.54738   0.48970   0.77621   0.01267  Uiso   1.00
H1203  H     0.70970   0.08525   0.55615   0.01267  Uiso   1.00
H1204  H     0.67750   0.04740   0.59040   0.01267  Uiso   1.00
H1205  H     0.63185   0.22745   0.59875   0.01267  Uiso   1.00
H1206  H     0.66205   0.26445   0.56350   0.01267  Uiso   1.00
C1207  C     0.68885   0.17820   0.55606   0.01267  Uiso   1.00
C1208  C     0.69350   0.11400   0.56448   0.01267  Uiso   1.00
C1209  C     0.67460   0.09165   0.58500   0.01267  Uiso   1.00
C1210  C     0.65185   0.13315   0.59755   0.01267  Uiso   1.00
C1211  C     0.64725   0.19850   0.58985   0.01267  Uiso   1.00
C1212  C     0.66545   0.22050   0.56903   0.01267  Uiso   1.00
C1213  C     0.71040   0.20350   0.53419   0.01267  Uiso   1.00
N1214  N     0.63390   0.10480   0.61889   0.01267  Uiso   1.00
O1215  O     0.73478   0.16570   0.52589   0.01267  Uiso   1.00
O1216  O     0.79738   0.23970   0.52621   0.01267  Uiso   1.00
H1217  H     0.70970   0.41475   0.69385   0.01267  Uiso   1.00
H1218  H     0.67750   0.45260   0.65960   0.01267  Uiso   1.00
H1219  H     0.63185   0.27255   0.65125   0.01267  Uiso   1.00
H1220  H     0.66205   0.23555   0.68650   0.01267  Uiso   1.00
C1221  C     0.68885   0.32180   0.69394   0.01267  Uiso   1.00
C1222  C     0.69350   0.38600   0.68552   0.01267  Uiso   1.00
C1223  C     0.67460   0.40835   0.66500   0.01267  Uiso   1.00
C1224  C     0.65185   0.36685   0.65245   0.01267  Uiso   1.00
C1225  C     0.64725   0.30150   0.66015   0.01267  Uiso   1.00
C1226  C     0.66545   0.27950   0.68097   0.01267  Uiso   1.00
C1227  C     0.71040   0.29650   0.71582   0.01267  Uiso   1.00
N1228  N     0.63390   0.39520   0.63111   0.01267  Uiso   1.00
O1229  O     0.73478   0.33430   0.72411   0.01267  Uiso   1.00
O1230  O     0.79738   0.26030   0.72379   0.01267  Uiso   1.00
H1231  H     0.95970   0.16475   0.94385   0.01267  Uiso   1.00
H1232  H     0.92750   0.20260   0.90960   0.01267  Uiso   1.00
H1233  H     0.88185   0.02255   0.90125   0.01267  Uiso   1.00
H1234  H     0.91205   0.48555   0.93650   0.01267  Uiso   1.00
C1235  C     0.93885   0.07180   0.94394   0.01267  Uiso   1.00
C1236  C     0.94350   0.13600   0.93552   0.01267  Uiso   1.00
C1237  C     0.92460   0.15835   0.91500   0.01267  Uiso   1.00
C1238  C     0.90185   0.11685   0.90245   0.01267  Uiso   1.00
C1239  C     0.89725   0.05150   0.91015   0.01267  Uiso   1.00
C1240  C     0.91545   0.02950   0.93097   0.01267  Uiso   1.00
C1241  C     0.96040   0.04650   0.96582   0.01267  Uiso   1.00
N1242  N     0.88390   0.14520   0.88111   0.01267  Uiso   1.00
O1243  O     0.98478   0.08430   0.97411   0.01267  Uiso   1.00
O1244  O     0.54738   0.01030   0.97379   0.01267  Uiso   1.00
H1245  H     0.79030   0.08525   0.69385   0.01267  Uiso   1.00
H1246  H     0.82250   0.04740   0.65960   0.01267  Uiso   1.00
H1247  H     0.86815   0.22745   0.65125   0.01267  Uiso   1.00
H1248  H     0.83795   0.26445   0.68650   0.01267  Uiso   1.00
C1249  C     0.81115   0.17820   0.69394   0.01267  Uiso   1.00
C1250  C     0.80650   0.11400   0.68552   0.01267  Uiso   1.00
C1251  C     0.82540   0.09165   0.66500   0.01267  Uiso   1.00
C1252  C     0.84815   0.13315   0.65245   0.01267  Uiso   1.00
C1253  C     0.85275   0.19850   0.66015   0.01267  Uiso   1.00
C1254  C     0.83455   0.22050   0.68097   0.01267  Uiso   1.00
C1255  C     0.78960   0.20350   0.71582   0.01267  Uiso   1.00
N1256  N     0.86610   0.10480   0.63111   0.01267  Uiso   1.00
O1257  O     0.76522   0.16570   0.72411   0.01267  Uiso   1.00
O1258  O     0.70262   0.23970   0.72379   0.01267  Uiso   1.00
H1259  H     0.54030   0.33525   0.94385   0.01267  Uiso   1.00
H1260  H     0.57250   0.29740   0.90960   0.01267  Uiso   1.00
H1261  H     0.61815   0.47745   0.90125   0.01267  Uiso   1.00
H1262  H     0.58795   0.01445   0.93650   0.01267  Uiso   1.00
C1263  C     0.56115   0.42820   0.94394   0.01267  Uiso   1.00
C1264  C     0.55650   0.36400   0.93552   0.01267  Uiso   1.00
C1265  C     0.57540   0.34165   0.91500   0.01267  Uiso   1.00
C1266  C     0.59815   0.38315   0.90245   0.01267  Uiso   1.00
C1267  C     0.60275   0.44850   0.91015   0.01267  Uiso   1.00
C1268  C     0.58455   0.47050   0.93097   0.01267  Uiso   1.00
C1269  C     0.53960   0.45350   0.96582   0.01267  Uiso   1.00
N1270  N     0.61610   0.35480   0.88111   0.01267  Uiso   1.00
O1271  O     0.51522   0.41570   0.97411   0.01267  Uiso   1.00
O1272  O     0.95262   0.48970   0.97379   0.01267  Uiso   1.00
H1273  H     0.95970   0.33525   0.69385   0.01267  Uiso   1.00
H1274  H     0.92750   0.29740   0.65960   0.01267  Uiso   1.00
H1275  H     0.88185   0.47745   0.65125   0.01267  Uiso   1.00
H1276  H     0.91205   0.01445   0.68650   0.01267  Uiso   1.00
C1277  C     0.93885   0.42820   0.69394   0.01267  Uiso   1.00
C1278  C     0.94350   0.36400   0.68552   0.01267  Uiso   1.00
C1279  C     0.92460   0.34165   0.66500   0.01267  Uiso   1.00
C1280  C     0.90185   0.38315   0.65245   0.01267  Uiso   1.00
C1281  C     0.89725   0.44850   0.66015   0.01267  Uiso   1.00
C1282  C     0.91545   0.47050   0.68097   0.01267  Uiso   1.00
C1283  C     0.96040   0.45350   0.71582   0.01267  Uiso   1.00
N1284  N     0.88390   0.35480   0.63111   0.01267  Uiso   1.00
O1285  O     0.98478   0.41570   0.72411   0.01267  Uiso   1.00
O1286  O     0.54738   0.48970   0.72379   0.01267  Uiso   1.00
H1287  H     0.70970   0.08525   0.94385   0.01267  Uiso   1.00
H1288  H     0.67750   0.04740   0.90960   0.01267  Uiso   1.00
H1289  H     0.63185   0.22745   0.90125   0.01267  Uiso   1.00
H1290  H     0.66205   0.26445   0.93650   0.01267  Uiso   1.00
C1291  C     0.68885   0.17820   0.94394   0.01267  Uiso   1.00
C1292  C     0.69350   0.11400   0.93552   0.01267  Uiso   1.00
C1293  C     0.67460   0.09165   0.91500   0.01267  Uiso   1.00
C1294  C     0.65185   0.13315   0.90245   0.01267  Uiso   1.00
C1295  C     0.64725   0.19850   0.91015   0.01267  Uiso   1.00
C1296  C     0.66545   0.22050   0.93097   0.01267  Uiso   1.00
C1297  C     0.71040   0.20350   0.96582   0.01267  Uiso   1.00
N1298  N     0.63390   0.10480   0.88111   0.01267  Uiso   1.00
O1299  O     0.73478   0.16570   0.97411   0.01267  Uiso   1.00
O1300  O     0.79738   0.23970   0.97379   0.01267  Uiso   1.00
H1301  H     0.54030   0.16475   0.69385   0.01267  Uiso   1.00
H1302  H     0.57250   0.20260   0.65960   0.01267  Uiso   1.00
H1303  H     0.61815   0.02255   0.65125   0.01267  Uiso   1.00
H1304  H     0.58795   0.48555   0.68650   0.01267  Uiso   1.00
C1305  C     0.56115   0.07180   0.69394   0.01267  Uiso   1.00
C1306  C     0.55650   0.13600   0.68552   0.01267  Uiso   1.00
C1307  C     0.57540   0.15835   0.66500   0.01267  Uiso   1.00
C1308  C     0.59815   0.11685   0.65245   0.01267  Uiso   1.00
C1309  C     0.60275   0.05150   0.66015   0.01267  Uiso   1.00
C1310  C     0.58455   0.02950   0.68097   0.01267  Uiso   1.00
C1311  C     0.53960   0.04650   0.71582   0.01267  Uiso   1.00
N1312  N     0.61610   0.14520   0.63111   0.01267  Uiso   1.00
O1313  O     0.51523   0.08430   0.72411   0.01267  Uiso   1.00
O1314  O     0.95262   0.01030   0.72379   0.01267  Uiso   1.00
H1315  H     0.79030   0.41475   0.94385   0.01267  Uiso   1.00
H1316  H     0.82250   0.45260   0.90960   0.01267  Uiso   1.00
H1317  H     0.86815   0.27255   0.90125   0.01267  Uiso   1.00
H1318  H     0.83795   0.23555   0.93650   0.01267  Uiso   1.00
C1319  C     0.81115   0.32180   0.94394   0.01267  Uiso   1.00
C1320  C     0.80650   0.38600   0.93552   0.01267  Uiso   1.00
C1321  C     0.82540   0.40835   0.91500   0.01267  Uiso   1.00
C1322  C     0.84815   0.36685   0.90245   0.01267  Uiso   1.00
C1323  C     0.85275   0.30150   0.91015   0.01267  Uiso   1.00
C1324  C     0.83455   0.27950   0.93097   0.01267  Uiso   1.00
C1325  C     0.78960   0.29650   0.96582   0.01267  Uiso   1.00
N1326  N     0.86610   0.39520   0.88111   0.01267  Uiso   1.00
O1327  O     0.76523   0.33430   0.97411   0.01267  Uiso   1.00
O1328  O     0.70262   0.26030   0.97379   0.01267  Uiso   1.00
H1329  H     0.79030   0.08525   0.80615   0.01267  Uiso   1.00
H1330  H     0.82250   0.04740   0.84040   0.01267  Uiso   1.00
H1331  H     0.86815   0.22745   0.84875   0.01267  Uiso   1.00
H1332  H     0.83795   0.26445   0.81350   0.01267  Uiso   1.00
C1333  C     0.81115   0.17820   0.80606   0.01267  Uiso   1.00
C1334  C     0.80650   0.11400   0.81448   0.01267  Uiso   1.00
C1335  C     0.82540   0.09165   0.83500   0.01267  Uiso   1.00
C1336  C     0.84815   0.13315   0.84755   0.01267  Uiso   1.00
C1337  C     0.85275   0.19850   0.83985   0.01267  Uiso   1.00
C1338  C     0.83455   0.22050   0.81903   0.01267  Uiso   1.00
C1339  C     0.78960   0.20350   0.78418   0.01267  Uiso   1.00
N1340  N     0.86610   0.10480   0.86889   0.01267  Uiso   1.00
O1341  O     0.76523   0.16570   0.77589   0.01267  Uiso   1.00
O1342  O     0.70262   0.23970   0.77621   0.01267  Uiso   1.00
H1343  H     0.54030   0.33525   0.55615   0.01267  Uiso   1.00
H1344  H     0.57250   0.29740   0.59040   0.01267  Uiso   1.00
H1345  H     0.61815   0.47745   0.59875   0.01267  Uiso   1.00
H1346  H     0.58795   0.01445   0.56350   0.01267  Uiso   1.00
C1347  C     0.56115   0.42820   0.55606   0.01267  Uiso   1.00
C1348  C     0.55650   0.36400   0.56448   0.01267  Uiso   1.00
C1349  C     0.57540   0.34165   0.58500   0.01267  Uiso   1.00
C1350  C     0.59815   0.38315   0.59755   0.01267  Uiso   1.00
C1351  C     0.60275   0.44850   0.58985   0.01267  Uiso   1.00
C1352  C     0.58455   0.47050   0.56903   0.01267  Uiso   1.00
C1353  C     0.53960   0.45350   0.53418   0.01267  Uiso   1.00
N1354  N     0.61610   0.35480   0.61889   0.01267  Uiso   1.00
O1355  O     0.51523   0.41570   0.52589   0.01267  Uiso   1.00
O1356  O     0.95262   0.48970   0.52621   0.01267  Uiso   1.00
H1357  H     0.70970   0.41475   0.80615   0.01267  Uiso   1.00
H1358  H     0.67750   0.45260   0.84040   0.01267  Uiso   1.00
H1359  H     0.63185   0.27255   0.84875   0.01267  Uiso   1.00
H1360  H     0.66205   0.23555   0.81350   0.01267  Uiso   1.00
C1361  C     0.68885   0.32180   0.80606   0.01267  Uiso   1.00
C1362  C     0.69350   0.38600   0.81448   0.01267  Uiso   1.00
C1363  C     0.67460   0.40835   0.83500   0.01267  Uiso   1.00
C1364  C     0.65185   0.36685   0.84755   0.01267  Uiso   1.00
C1365  C     0.64725   0.30150   0.83985   0.01267  Uiso   1.00
C1366  C     0.66545   0.27950   0.81903   0.01267  Uiso   1.00
C1367  C     0.71040   0.29650   0.78419   0.01267  Uiso   1.00
N1368  N     0.63390   0.39520   0.86889   0.01267  Uiso   1.00
O1369  O     0.73478   0.33430   0.77589   0.01267  Uiso   1.00
O1370  O     0.79738   0.26030   0.77621   0.01267  Uiso   1.00
H1371  H     0.95970   0.16475   0.55615   0.01267  Uiso   1.00
H1372  H     0.92750   0.20260   0.59040   0.01267  Uiso   1.00
H1373  H     0.88185   0.02255   0.59875   0.01267  Uiso   1.00
H1374  H     0.91205   0.48555   0.56350   0.01267  Uiso   1.00
C1375  C     0.93885   0.07180   0.55606   0.01267  Uiso   1.00
C1376  C     0.94350   0.13600   0.56448   0.01267  Uiso   1.00
C1377  C     0.92460   0.15835   0.58500   0.01267  Uiso   1.00
C1378  C     0.90185   0.11685   0.59755   0.01267  Uiso   1.00
C1379  C     0.89725   0.05150   0.58985   0.01267  Uiso   1.00
C1380  C     0.91545   0.02950   0.56903   0.01267  Uiso   1.00
C1381  C     0.96040   0.04650   0.53419   0.01267  Uiso   1.00
N1382  N     0.88390   0.14520   0.61889   0.01267  Uiso   1.00
O1383  O     0.98478   0.08430   0.52589   0.01267  Uiso   1.00
O1384  O     0.54738   0.01030   0.52621   0.01267  Uiso   1.00
Cu1385 Cu    0.98055   0.05620   0.75000   0.01267  Uiso   1.00
Cu1386 Cu    0.73055   0.30620   0.50000   0.01267  Uiso   1.00
Cu1387 Cu    0.51945   0.44380   0.75000   0.01267  Uiso   1.00
Cu1388 Cu    0.76945   0.19380   0.50000   0.01267  Uiso   1.00
Cu1389 Cu    0.76945   0.30620   0.75000   0.01267  Uiso   1.00
Cu1390 Cu    0.51945   0.05620   0.50000   0.01267  Uiso   1.00
Cu1391 Cu    0.73055   0.19380   0.75000   0.01267  Uiso   1.00
Cu1392 Cu    0.98055   0.44380   0.50000   0.01267  Uiso   1.00
H1393  H     0.04030   0.66475   0.80615   0.01267  Uiso   1.00
H1394  H     0.07250   0.70260   0.84040   0.01267  Uiso   1.00
H1395  H     0.11815   0.52255   0.84875   0.01267  Uiso   1.00
H1396  H     0.08795   0.98555   0.81350   0.01267  Uiso   1.00
C1397  C     0.06115   0.57180   0.80606   0.01267  Uiso   1.00
C1398  C     0.05650   0.63600   0.81448   0.01267  Uiso   1.00
C1399  C     0.07540   0.65835   0.83500   0.01267  Uiso   1.00
C1400  C     0.09815   0.61685   0.84755   0.01267  Uiso   1.00
C1401  C     0.10275   0.55150   0.83985   0.01267  Uiso   1.00
C1402  C     0.08455   0.52950   0.81903   0.01267  Uiso   1.00
C1403  C     0.03960   0.54650   0.78418   0.01267  Uiso   1.00
N1404  N     0.11610   0.64520   0.86889   0.01267  Uiso   1.00
O1405  O     0.01523   0.58430   0.77589   0.01267  Uiso   1.00
O1406  O     0.45262   0.51030   0.77621   0.01267  Uiso   1.00
H1407  H     0.29030   0.91475   0.55615   0.01267  Uiso   1.00
H1408  H     0.32250   0.95260   0.59040   0.01267  Uiso   1.00
H1409  H     0.36815   0.77255   0.59875   0.01267  Uiso   1.00
H1410  H     0.33795   0.73555   0.56350   0.01267  Uiso   1.00
C1411  C     0.31115   0.82180   0.55606   0.01267  Uiso   1.00
C1412  C     0.30650   0.88600   0.56448   0.01267  Uiso   1.00
C1413  C     0.32540   0.90835   0.58500   0.01267  Uiso   1.00
C1414  C     0.34815   0.86685   0.59755   0.01267  Uiso   1.00
C1415  C     0.35275   0.80150   0.58985   0.01267  Uiso   1.00
C1416  C     0.33455   0.77950   0.56903   0.01267  Uiso   1.00
C1417  C     0.28960   0.79650   0.53419   0.01267  Uiso   1.00
N1418  N     0.36610   0.89520   0.61889   0.01267  Uiso   1.00
O1419  O     0.26523   0.83430   0.52589   0.01267  Uiso   1.00
O1420  O     0.20262   0.76030   0.52621   0.01267  Uiso   1.00
H1421  H     0.45970   0.83525   0.80615   0.01267  Uiso   1.00
H1422  H     0.42750   0.79740   0.84040   0.01267  Uiso   1.00
H1423  H     0.38185   0.97745   0.84875   0.01267  Uiso   1.00
H1424  H     0.41205   0.51445   0.81350   0.01267  Uiso   1.00
C1425  C     0.43885   0.92820   0.80606   0.01267  Uiso   1.00
C1426  C     0.44350   0.86400   0.81448   0.01267  Uiso   1.00
C1427  C     0.42460   0.84165   0.83500   0.01267  Uiso   1.00
C1428  C     0.40185   0.88315   0.84755   0.01267  Uiso   1.00
C1429  C     0.39725   0.94850   0.83985   0.01267  Uiso   1.00
C1430  C     0.41545   0.97050   0.81903   0.01267  Uiso   1.00
C1431  C     0.46040   0.95350   0.78419   0.01267  Uiso   1.00
N1432  N     0.38390   0.85480   0.86889   0.01267  Uiso   1.00
O1433  O     0.48478   0.91570   0.77589   0.01267  Uiso   1.00
O1434  O     0.04738   0.98970   0.77621   0.01267  Uiso   1.00
H1435  H     0.20970   0.58525   0.55615   0.01267  Uiso   1.00
H1436  H     0.17750   0.54740   0.59040   0.01267  Uiso   1.00
H1437  H     0.13185   0.72745   0.59875   0.01267  Uiso   1.00
H1438  H     0.16205   0.76445   0.56350   0.01267  Uiso   1.00
C1439  C     0.18885   0.67820   0.55606   0.01267  Uiso   1.00
C1440  C     0.19350   0.61400   0.56448   0.01267  Uiso   1.00
C1441  C     0.17460   0.59165   0.58500   0.01267  Uiso   1.00
C1442  C     0.15185   0.63315   0.59755   0.01267  Uiso   1.00
C1443  C     0.14725   0.69850   0.58985   0.01267  Uiso   1.00
C1444  C     0.16545   0.72050   0.56903   0.01267  Uiso   1.00
C1445  C     0.21040   0.70350   0.53419   0.01267  Uiso   1.00
N1446  N     0.13390   0.60480   0.61889   0.01267  Uiso   1.00
O1447  O     0.23478   0.66570   0.52589   0.01267  Uiso   1.00
O1448  O     0.29738   0.73970   0.52621   0.01267  Uiso   1.00
H1449  H     0.20970   0.91475   0.69385   0.01267  Uiso   1.00
H1450  H     0.17750   0.95260   0.65960   0.01267  Uiso   1.00
H1451  H     0.13185   0.77255   0.65125   0.01267  Uiso   1.00
H1452  H     0.16205   0.73555   0.68650   0.01267  Uiso   1.00
C1453  C     0.18885   0.82180   0.69394   0.01267  Uiso   1.00
C1454  C     0.19350   0.88600   0.68552   0.01267  Uiso   1.00
C1455  C     0.17460   0.90835   0.66500   0.01267  Uiso   1.00
C1456  C     0.15185   0.86685   0.65245   0.01267  Uiso   1.00
C1457  C     0.14725   0.80150   0.66015   0.01267  Uiso   1.00
C1458  C     0.16545   0.77950   0.68097   0.01267  Uiso   1.00
C1459  C     0.21040   0.79650   0.71582   0.01267  Uiso   1.00
N1460  N     0.13390   0.89520   0.63111   0.01267  Uiso   1.00
O1461  O     0.23477   0.83430   0.72411   0.01267  Uiso   1.00
O1462  O     0.29738   0.76030   0.72379   0.01267  Uiso   1.00
H1463  H     0.45970   0.66475   0.94385   0.01267  Uiso   1.00
H1464  H     0.42750   0.70260   0.90960   0.01267  Uiso   1.00
H1465  H     0.38185   0.52255   0.90125   0.01267  Uiso   1.00
H1466  H     0.41205   0.98555   0.93650   0.01267  Uiso   1.00
C1467  C     0.43885   0.57180   0.94394   0.01267  Uiso   1.00
C1468  C     0.44350   0.63600   0.93552   0.01267  Uiso   1.00
C1469  C     0.42460   0.65835   0.91500   0.01267  Uiso   1.00
C1470  C     0.40185   0.61685   0.90245   0.01267  Uiso   1.00
C1471  C     0.39725   0.55150   0.91015   0.01267  Uiso   1.00
C1472  C     0.41545   0.52950   0.93097   0.01267  Uiso   1.00
C1473  C     0.46040   0.54650   0.96582   0.01267  Uiso   1.00
N1474  N     0.38390   0.64520   0.88111   0.01267  Uiso   1.00
O1475  O     0.48477   0.58430   0.97411   0.01267  Uiso   1.00
O1476  O     0.04738   0.51030   0.97379   0.01267  Uiso   1.00
H1477  H     0.29030   0.58525   0.69385   0.01267  Uiso   1.00
H1478  H     0.32250   0.54740   0.65960   0.01267  Uiso   1.00
H1479  H     0.36815   0.72745   0.65125   0.01267  Uiso   1.00
H1480  H     0.33795   0.76445   0.68650   0.01267  Uiso   1.00
C1481  C     0.31115   0.67820   0.69394   0.01267  Uiso   1.00
C1482  C     0.30650   0.61400   0.68552   0.01267  Uiso   1.00
C1483  C     0.32540   0.59165   0.66500   0.01267  Uiso   1.00
C1484  C     0.34815   0.63315   0.65245   0.01267  Uiso   1.00
C1485  C     0.35275   0.69850   0.66015   0.01267  Uiso   1.00
C1486  C     0.33455   0.72050   0.68097   0.01267  Uiso   1.00
C1487  C     0.28960   0.70350   0.71582   0.01267  Uiso   1.00
N1488  N     0.36610   0.60480   0.63111   0.01267  Uiso   1.00
O1489  O     0.26522   0.66570   0.72411   0.01267  Uiso   1.00
O1490  O     0.20262   0.73970   0.72379   0.01267  Uiso   1.00
H1491  H     0.04030   0.83525   0.94385   0.01267  Uiso   1.00
H1492  H     0.07250   0.79740   0.90960   0.01267  Uiso   1.00
H1493  H     0.11815   0.97745   0.90125   0.01267  Uiso   1.00
H1494  H     0.08795   0.51445   0.93650   0.01267  Uiso   1.00
C1495  C     0.06115   0.92820   0.94394   0.01267  Uiso   1.00
C1496  C     0.05650   0.86400   0.93552   0.01267  Uiso   1.00
C1497  C     0.07540   0.84165   0.91500   0.01267  Uiso   1.00
C1498  C     0.09815   0.88315   0.90245   0.01267  Uiso   1.00
C1499  C     0.10275   0.94850   0.91015   0.01267  Uiso   1.00
C1500  C     0.08455   0.97050   0.93097   0.01267  Uiso   1.00
C1501  C     0.03960   0.95350   0.96582   0.01267  Uiso   1.00
N1502  N     0.11610   0.85480   0.88111   0.01267  Uiso   1.00
O1503  O     0.01522   0.91570   0.97411   0.01267  Uiso   1.00
O1504  O     0.45262   0.98970   0.97379   0.01267  Uiso   1.00
H1505  H     0.45970   0.83525   0.69385   0.01267  Uiso   1.00
H1506  H     0.42750   0.79740   0.65960   0.01267  Uiso   1.00
H1507  H     0.38185   0.97745   0.65125   0.01267  Uiso   1.00
H1508  H     0.41205   0.51445   0.68650   0.01267  Uiso   1.00
C1509  C     0.43885   0.92820   0.69394   0.01267  Uiso   1.00
C1510  C     0.44350   0.86400   0.68552   0.01267  Uiso   1.00
C1511  C     0.42460   0.84165   0.66500   0.01267  Uiso   1.00
C1512  C     0.40185   0.88315   0.65245   0.01267  Uiso   1.00
C1513  C     0.39725   0.94850   0.66015   0.01267  Uiso   1.00
C1514  C     0.41545   0.97050   0.68097   0.01267  Uiso   1.00
C1515  C     0.46040   0.95350   0.71582   0.01267  Uiso   1.00
N1516  N     0.38390   0.85480   0.63111   0.01267  Uiso   1.00
O1517  O     0.48478   0.91570   0.72411   0.01267  Uiso   1.00
O1518  O     0.04738   0.98970   0.72379   0.01267  Uiso   1.00
H1519  H     0.20970   0.58525   0.94385   0.01267  Uiso   1.00
H1520  H     0.17750   0.54740   0.90960   0.01267  Uiso   1.00
H1521  H     0.13185   0.72745   0.90125   0.01267  Uiso   1.00
H1522  H     0.16205   0.76445   0.93650   0.01267  Uiso   1.00
C1523  C     0.18885   0.67820   0.94394   0.01267  Uiso   1.00
C1524  C     0.19350   0.61400   0.93552   0.01267  Uiso   1.00
C1525  C     0.17460   0.59165   0.91500   0.01267  Uiso   1.00
C1526  C     0.15185   0.63315   0.90245   0.01267  Uiso   1.00
C1527  C     0.14725   0.69850   0.91015   0.01267  Uiso   1.00
C1528  C     0.16545   0.72050   0.93097   0.01267  Uiso   1.00
C1529  C     0.21040   0.70350   0.96582   0.01267  Uiso   1.00
N1530  N     0.13390   0.60480   0.88111   0.01267  Uiso   1.00
O1531  O     0.23478   0.66570   0.97411   0.01267  Uiso   1.00
O1532  O     0.29738   0.73970   0.97379   0.01267  Uiso   1.00
H1533  H     0.04030   0.66475   0.69385   0.01267  Uiso   1.00
H1534  H     0.07250   0.70260   0.65960   0.01267  Uiso   1.00
H1535  H     0.11815   0.52255   0.65125   0.01267  Uiso   1.00
H1536  H     0.08795   0.98555   0.68650   0.01267  Uiso   1.00
C1537  C     0.06115   0.57180   0.69394   0.01267  Uiso   1.00
C1538  C     0.05650   0.63600   0.68552   0.01267  Uiso   1.00
C1539  C     0.07540   0.65835   0.66500   0.01267  Uiso   1.00
C1540  C     0.09815   0.61685   0.65245   0.01267  Uiso   1.00
C1541  C     0.10275   0.55150   0.66015   0.01267  Uiso   1.00
C1542  C     0.08455   0.52950   0.68097   0.01267  Uiso   1.00
C1543  C     0.03960   0.54650   0.71582   0.01267  Uiso   1.00
N1544  N     0.11610   0.64520   0.63111   0.01267  Uiso   1.00
O1545  O     0.01523   0.58430   0.72411   0.01267  Uiso   1.00
O1546  O     0.45262   0.51030   0.72379   0.01267  Uiso   1.00
H1547  H     0.29030   0.91475   0.94385   0.01267  Uiso   1.00
H1548  H     0.32250   0.95260   0.90960   0.01267  Uiso   1.00
H1549  H     0.36815   0.77255   0.90125   0.01267  Uiso   1.00
H1550  H     0.33795   0.73555   0.93650   0.01267  Uiso   1.00
C1551  C     0.31115   0.82180   0.94394   0.01267  Uiso   1.00
C1552  C     0.30650   0.88600   0.93552   0.01267  Uiso   1.00
C1553  C     0.32540   0.90835   0.91500   0.01267  Uiso   1.00
C1554  C     0.34815   0.86685   0.90245   0.01267  Uiso   1.00
C1555  C     0.35275   0.80150   0.91015   0.01267  Uiso   1.00
C1556  C     0.33455   0.77950   0.93097   0.01267  Uiso   1.00
C1557  C     0.28960   0.79650   0.96582   0.01267  Uiso   1.00
N1558  N     0.36610   0.89520   0.88111   0.01267  Uiso   1.00
O1559  O     0.26523   0.83430   0.97411   0.01267  Uiso   1.00
O1560  O     0.20262   0.76030   0.97379   0.01267  Uiso   1.00
H1561  H     0.29030   0.58525   0.80615   0.01267  Uiso   1.00
H1562  H     0.32250   0.54740   0.84040   0.01267  Uiso   1.00
H1563  H     0.36815   0.72745   0.84875   0.01267  Uiso   1.00
H1564  H     0.33795   0.76445   0.81350   0.01267  Uiso   1.00
C1565  C     0.31115   0.67820   0.80606   0.01267  Uiso   1.00
C1566  C     0.30650   0.61400   0.81448   0.01267  Uiso   1.00
C1567  C     0.32540   0.59165   0.83500   0.01267  Uiso   1.00
C1568  C     0.34815   0.63315   0.84755   0.01267  Uiso   1.00
C1569  C     0.35275   0.69850   0.83985   0.01267  Uiso   1.00
C1570  C     0.33455   0.72050   0.81903   0.01267  Uiso   1.00
C1571  C     0.28960   0.70350   0.78418   0.01267  Uiso   1.00
N1572  N     0.36610   0.60480   0.86889   0.01267  Uiso   1.00
O1573  O     0.26523   0.66570   0.77589   0.01267  Uiso   1.00
O1574  O     0.20262   0.73970   0.77621   0.01267  Uiso   1.00
H1575  H     0.04030   0.83525   0.55615   0.01267  Uiso   1.00
H1576  H     0.07250   0.79740   0.59040   0.01267  Uiso   1.00
H1577  H     0.11815   0.97745   0.59875   0.01267  Uiso   1.00
H1578  H     0.08795   0.51445   0.56350   0.01267  Uiso   1.00
C1579  C     0.06115   0.92820   0.55606   0.01267  Uiso   1.00
C1580  C     0.05650   0.86400   0.56448   0.01267  Uiso   1.00
C1581  C     0.07540   0.84165   0.58500   0.01267  Uiso   1.00
C1582  C     0.09815   0.88315   0.59755   0.01267  Uiso   1.00
C1583  C     0.10275   0.94850   0.58985   0.01267  Uiso   1.00
C1584  C     0.08455   0.97050   0.56903   0.01267  Uiso   1.00
C1585  C     0.03960   0.95350   0.53418   0.01267  Uiso   1.00
N1586  N     0.11610   0.85480   0.61889   0.01267  Uiso   1.00
O1587  O     0.01523   0.91570   0.52589   0.01267  Uiso   1.00
O1588  O     0.45262   0.98970   0.52621   0.01267  Uiso   1.00
H1589  H     0.20970   0.91475   0.80615   0.01267  Uiso   1.00
H1590  H     0.17750   0.95260   0.84040   0.01267  Uiso   1.00
H1591  H     0.13185   0.77255   0.84875   0.01267  Uiso   1.00
H1592  H     0.16205   0.73555   0.81350   0.01267  Uiso   1.00
C1593  C     0.18885   0.82180   0.80606   0.01267  Uiso   1.00
C1594  C     0.19350   0.88600   0.81448   0.01267  Uiso   1.00
C1595  C     0.17460   0.90835   0.83500   0.01267  Uiso   1.00
C1596  C     0.15185   0.86685   0.84755   0.01267  Uiso   1.00
C1597  C     0.14725   0.80150   0.83985   0.01267  Uiso   1.00
C1598  C     0.16545   0.77950   0.81903   0.01267  Uiso   1.00
C1599  C     0.21040   0.79650   0.78419   0.01267  Uiso   1.00
N1600  N     0.13390   0.89520   0.86889   0.01267  Uiso   1.00
O1601  O     0.23477   0.83430   0.77589   0.01267  Uiso   1.00
O1602  O     0.29738   0.76030   0.77621   0.01267  Uiso   1.00
H1603  H     0.45970   0.66475   0.55615   0.01267  Uiso   1.00
H1604  H     0.42750   0.70260   0.59040   0.01267  Uiso   1.00
H1605  H     0.38185   0.52255   0.59875   0.01267  Uiso   1.00
H1606  H     0.41205   0.98555   0.56350   0.01267  Uiso   1.00
C1607  C     0.43885   0.57180   0.55606   0.01267  Uiso   1.00
C1608  C     0.44350   0.63600   0.56448   0.01267  Uiso   1.00
C1609  C     0.42460   0.65835   0.58500   0.01267  Uiso   1.00
C1610  C     0.40185   0.61685   0.59755   0.01267  Uiso   1.00
C1611  C     0.39725   0.55150   0.58985   0.01267  Uiso   1.00
C1612  C     0.41545   0.52950   0.56903   0.01267  Uiso   1.00
C1613  C     0.46040   0.54650   0.53418   0.01267  Uiso   1.00
N1614  N     0.38390   0.64520   0.61889   0.01267  Uiso   1.00
O1615  O     0.48478   0.58430   0.52589   0.01267  Uiso   1.00
O1616  O     0.04738   0.51030   0.52621   0.01267  Uiso   1.00
Cu1617 Cu    0.48055   0.55620   0.75000   0.01267  Uiso   1.00
Cu1618 Cu    0.23055   0.80620   0.50000   0.01267  Uiso   1.00
Cu1619 Cu    0.01945   0.94380   0.75000   0.01267  Uiso   1.00
Cu1620 Cu    0.26945   0.69380   0.50000   0.01267  Uiso   1.00
Cu1621 Cu    0.26945   0.80620   0.75000   0.01267  Uiso   1.00
Cu1622 Cu    0.01945   0.55620   0.50000   0.01267  Uiso   1.00
Cu1623 Cu    0.23055   0.69380   0.75000   0.01267  Uiso   1.00
Cu1624 Cu    0.48055   0.94380   0.50000   0.01267  Uiso   1.00
H1625  H     0.54030   0.66475   0.80615   0.01267  Uiso   1.00
H1626  H     0.57250   0.70260   0.84040   0.01267  Uiso   1.00
H1627  H     0.61815   0.52255   0.84875   0.01267  Uiso   1.00
H1628  H     0.58795   0.98555   0.81350   0.01267  Uiso   1.00
C1629  C     0.56115   0.57180   0.80606   0.01267  Uiso   1.00
C1630  C     0.55650   0.63600   0.81448   0.01267  Uiso   1.00
C1631  C     0.57540   0.65835   0.83500   0.01267  Uiso   1.00
C1632  C     0.59815   0.61685   0.84755   0.01267  Uiso   1.00
C1633  C     0.60275   0.55150   0.83985   0.01267  Uiso   1.00
C1634  C     0.58455   0.52950   0.81903   0.01267  Uiso   1.00
C1635  C     0.53960   0.54650   0.78418   0.01267  Uiso   1.00
N1636  N     0.61610   0.64520   0.86889   0.01267  Uiso   1.00
O1637  O     0.51523   0.58430   0.77589   0.01267  Uiso   1.00
O1638  O     0.95262   0.51030   0.77621   0.01267  Uiso   1.00
H1639  H     0.79030   0.91475   0.55615   0.01267  Uiso   1.00
H1640  H     0.82250   0.95260   0.59040   0.01267  Uiso   1.00
H1641  H     0.86815   0.77255   0.59875   0.01267  Uiso   1.00
H1642  H     0.83795   0.73555   0.56350   0.01267  Uiso   1.00
C1643  C     0.81115   0.82180   0.55606   0.01267  Uiso   1.00
C1644  C     0.80650   0.88600   0.56448   0.01267  Uiso   1.00
C1645  C     0.82540   0.90835   0.58500   0.01267  Uiso   1.00
C1646  C     0.84815   0.86685   0.59755   0.01267  Uiso   1.00
C1647  C     0.85275   0.80150   0.58985   0.01267  Uiso   1.00
C1648  C     0.83455   0.77950   0.56903   0.01267  Uiso   1.00
C1649  C     0.78960   0.79650   0.53418   0.01267  Uiso   1.00
N1650  N     0.86610   0.89520   0.61889   0.01267  Uiso   1.00
O1651  O     0.76523   0.83430   0.52589   0.01267  Uiso   1.00
O1652  O     0.70262   0.76030   0.52621   0.01267  Uiso   1.00
H1653  H     0.95970   0.83525   0.80615   0.01267  Uiso   1.00
H1654  H     0.92750   0.79740   0.84040   0.01267  Uiso   1.00
H1655  H     0.88185   0.97745   0.84875   0.01267  Uiso   1.00
H1656  H     0.91205   0.51445   0.81350   0.01267  Uiso   1.00
C1657  C     0.93885   0.92820   0.80606   0.01267  Uiso   1.00
C1658  C     0.94350   0.86400   0.81448   0.01267  Uiso   1.00
C1659  C     0.92460   0.84165   0.83500   0.01267  Uiso   1.00
C1660  C     0.90185   0.88315   0.84755   0.01267  Uiso   1.00
C1661  C     0.89725   0.94850   0.83985   0.01267  Uiso   1.00
C1662  C     0.91545   0.97050   0.81904   0.01267  Uiso   1.00
C1663  C     0.96040   0.95350   0.78419   0.01267  Uiso   1.00
N1664  N     0.88390   0.85480   0.86889   0.01267  Uiso   1.00
O1665  O     0.98478   0.91570   0.77589   0.01267  Uiso   1.00
O1666  O     0.54738   0.98970   0.77621   0.01267  Uiso   1.00
H1667  H     0.70970   0.58525   0.55615   0.01267  Uiso   1.00
H1668  H     0.67750   0.54740   0.59040   0.01267  Uiso   1.00
H1669  H     0.63185   0.72745   0.59875   0.01267  Uiso   1.00
H1670  H     0.66205   0.76445   0.56350   0.01267  Uiso   1.00
C1671  C     0.68885   0.67820   0.55606   0.01267  Uiso   1.00
C1672  C     0.69350   0.61400   0.56448   0.01267  Uiso   1.00
C1673  C     0.67460   0.59165   0.58500   0.01267  Uiso   1.00
C1674  C     0.65185   0.63315   0.59755   0.01267  Uiso   1.00
C1675  C     0.64725   0.69850   0.58985   0.01267  Uiso   1.00
C1676  C     0.66545   0.72050   0.56903   0.01267  Uiso   1.00
C1677  C     0.71040   0.70350   0.53418   0.01267  Uiso   1.00
N1678  N     0.63390   0.60480   0.61889   0.01267  Uiso   1.00
O1679  O     0.73478   0.66570   0.52589   0.01267  Uiso   1.00
O1680  O     0.79738   0.73970   0.52621   0.01267  Uiso   1.00
H1681  H     0.70970   0.91475   0.69385   0.01267  Uiso   1.00
H1682  H     0.67750   0.95260   0.65960   0.01267  Uiso   1.00
H1683  H     0.63185   0.77255   0.65125   0.01267  Uiso   1.00
H1684  H     0.66205   0.73555   0.68650   0.01267  Uiso   1.00
C1685  C     0.68885   0.82180   0.69394   0.01267  Uiso   1.00
C1686  C     0.69350   0.88600   0.68552   0.01267  Uiso   1.00
C1687  C     0.67460   0.90835   0.66500   0.01267  Uiso   1.00
C1688  C     0.65185   0.86685   0.65245   0.01267  Uiso   1.00
C1689  C     0.64725   0.80150   0.66015   0.01267  Uiso   1.00
C1690  C     0.66545   0.77950   0.68097   0.01267  Uiso   1.00
C1691  C     0.71040   0.79650   0.71582   0.01267  Uiso   1.00
N1692  N     0.63390   0.89520   0.63111   0.01267  Uiso   1.00
O1693  O     0.73478   0.83430   0.72411   0.01267  Uiso   1.00
O1694  O     0.79738   0.76030   0.72379   0.01267  Uiso   1.00
H1695  H     0.95970   0.66475   0.94385   0.01267  Uiso   1.00
H1696  H     0.92750   0.70260   0.90960   0.01267  Uiso   1.00
H1697  H     0.88185   0.52255   0.90125   0.01267  Uiso   1.00
H1698  H     0.91205   0.98555   0.93650   0.01267  Uiso   1.00
C1699  C     0.93885   0.57180   0.94394   0.01267  Uiso   1.00
C1700  C     0.94350   0.63600   0.93552   0.01267  Uiso   1.00
C1701  C     0.92460   0.65835   0.91500   0.01267  Uiso   1.00
C1702  C     0.90185   0.61685   0.90245   0.01267  Uiso   1.00
C1703  C     0.89725   0.55150   0.91015   0.01267  Uiso   1.00
C1704  C     0.91545   0.52950   0.93097   0.01267  Uiso   1.00
C1705  C     0.96040   0.54650   0.96582   0.01267  Uiso   1.00
N1706  N     0.88390   0.64520   0.88111   0.01267  Uiso   1.00
O1707  O     0.98478   0.58430   0.97411   0.01267  Uiso   1.00
O1708  O     0.54738   0.51030   0.97379   0.01267  Uiso   1.00
H1709  H     0.79030   0.58525   0.69385   0.01267  Uiso   1.00
H1710  H     0.82250   0.54740   0.65960   0.01267  Uiso   1.00
H1711  H     0.86815   0.72745   0.65125   0.01267  Uiso   1.00
H1712  H     0.83795   0.76445   0.68650   0.01267  Uiso   1.00
C1713  C     0.81115   0.67820   0.69394   0.01267  Uiso   1.00
C1714  C     0.80650   0.61400   0.68552   0.01267  Uiso   1.00
C1715  C     0.82540   0.59165   0.66500   0.01267  Uiso   1.00
C1716  C     0.84815   0.63315   0.65245   0.01267  Uiso   1.00
C1717  C     0.85275   0.69850   0.66015   0.01267  Uiso   1.00
C1718  C     0.83455   0.72050   0.68097   0.01267  Uiso   1.00
C1719  C     0.78960   0.70350   0.71582   0.01267  Uiso   1.00
N1720  N     0.86610   0.60480   0.63111   0.01267  Uiso   1.00
O1721  O     0.76522   0.66570   0.72411   0.01267  Uiso   1.00
O1722  O     0.70262   0.73970   0.72379   0.01267  Uiso   1.00
H1723  H     0.54030   0.83525   0.94385   0.01267  Uiso   1.00
H1724  H     0.57250   0.79740   0.90960   0.01267  Uiso   1.00
H1725  H     0.61815   0.97745   0.90125   0.01267  Uiso   1.00
H1726  H     0.58795   0.51445   0.93650   0.01267  Uiso   1.00
C1727  C     0.56115   0.92820   0.94394   0.01267  Uiso   1.00
C1728  C     0.55650   0.86400   0.93552   0.01267  Uiso   1.00
C1729  C     0.57540   0.84165   0.91500   0.01267  Uiso   1.00
C1730  C     0.59815   0.88315   0.90245   0.01267  Uiso   1.00
C1731  C     0.60275   0.94850   0.91015   0.01267  Uiso   1.00
C1732  C     0.58455   0.97050   0.93097   0.01267  Uiso   1.00
C1733  C     0.53960   0.95350   0.96582   0.01267  Uiso   1.00
N1734  N     0.61610   0.85480   0.88111   0.01267  Uiso   1.00
O1735  O     0.51522   0.91570   0.97411   0.01267  Uiso   1.00
O1736  O     0.95262   0.98970   0.97379   0.01267  Uiso   1.00
H1737  H     0.95970   0.83525   0.69385   0.01267  Uiso   1.00
H1738  H     0.92750   0.79740   0.65960   0.01267  Uiso   1.00
H1739  H     0.88185   0.97745   0.65125   0.01267  Uiso   1.00
H1740  H     0.91205   0.51445   0.68650   0.01267  Uiso   1.00
C1741  C     0.93885   0.92820   0.69394   0.01267  Uiso   1.00
C1742  C     0.94350   0.86400   0.68552   0.01267  Uiso   1.00
C1743  C     0.92460   0.84165   0.66500   0.01267  Uiso   1.00
C1744  C     0.90185   0.88315   0.65245   0.01267  Uiso   1.00
C1745  C     0.89725   0.94850   0.66015   0.01267  Uiso   1.00
C1746  C     0.91545   0.97050   0.68097   0.01267  Uiso   1.00
C1747  C     0.96040   0.95350   0.71582   0.01267  Uiso   1.00
N1748  N     0.88390   0.85480   0.63111   0.01267  Uiso   1.00
O1749  O     0.98478   0.91570   0.72411   0.01267  Uiso   1.00
O1750  O     0.54738   0.98970   0.72379   0.01267  Uiso   1.00
H1751  H     0.70970   0.58525   0.94385   0.01267  Uiso   1.00
H1752  H     0.67750   0.54740   0.90960   0.01267  Uiso   1.00
H1753  H     0.63185   0.72745   0.90125   0.01267  Uiso   1.00
H1754  H     0.66205   0.76445   0.93650   0.01267  Uiso   1.00
C1755  C     0.68885   0.67820   0.94394   0.01267  Uiso   1.00
C1756  C     0.69350   0.61400   0.93552   0.01267  Uiso   1.00
C1757  C     0.67460   0.59165   0.91500   0.01267  Uiso   1.00
C1758  C     0.65185   0.63315   0.90245   0.01267  Uiso   1.00
C1759  C     0.64725   0.69850   0.91015   0.01267  Uiso   1.00
C1760  C     0.66545   0.72050   0.93097   0.01267  Uiso   1.00
C1761  C     0.71040   0.70350   0.96582   0.01267  Uiso   1.00
N1762  N     0.63390   0.60480   0.88111   0.01267  Uiso   1.00
O1763  O     0.73478   0.66570   0.97411   0.01267  Uiso   1.00
O1764  O     0.79738   0.73970   0.97379   0.01267  Uiso   1.00
H1765  H     0.54030   0.66475   0.69385   0.01267  Uiso   1.00
H1766  H     0.57250   0.70260   0.65960   0.01267  Uiso   1.00
H1767  H     0.61815   0.52255   0.65125   0.01267  Uiso   1.00
H1768  H     0.58795   0.98555   0.68650   0.01267  Uiso   1.00
C1769  C     0.56115   0.57180   0.69394   0.01267  Uiso   1.00
C1770  C     0.55650   0.63600   0.68552   0.01267  Uiso   1.00
C1771  C     0.57540   0.65835   0.66500   0.01267  Uiso   1.00
C1772  C     0.59815   0.61685   0.65245   0.01267  Uiso   1.00
C1773  C     0.60275   0.55150   0.66015   0.01267  Uiso   1.00
C1774  C     0.58455   0.52950   0.68097   0.01267  Uiso   1.00
C1775  C     0.53960   0.54650   0.71582   0.01267  Uiso   1.00
N1776  N     0.61610   0.64520   0.63111   0.01267  Uiso   1.00
O1777  O     0.51523   0.58430   0.72411   0.01267  Uiso   1.00
O1778  O     0.95262   0.51030   0.72379   0.01267  Uiso   1.00
H1779  H     0.79030   0.91475   0.94385   0.01267  Uiso   1.00
H1780  H     0.82250   0.95260   0.90960   0.01267  Uiso   1.00
H1781  H     0.86815   0.77255   0.90125   0.01267  Uiso   1.00
H1782  H     0.83795   0.73555   0.93650   0.01267  Uiso   1.00
C1783  C     0.81115   0.82180   0.94394   0.01267  Uiso   1.00
C1784  C     0.80650   0.88600   0.93552   0.01267  Uiso   1.00
C1785  C     0.82540   0.90835   0.91500   0.01267  Uiso   1.00
C1786  C     0.84815   0.86685   0.90245   0.01267  Uiso   1.00
C1787  C     0.85275   0.80150   0.91015   0.01267  Uiso   1.00
C1788  C     0.83455   0.77950   0.93097   0.01267  Uiso   1.00
C1789  C     0.78960   0.79650   0.96582   0.01267  Uiso   1.00
N1790  N     0.86610   0.89520   0.88111   0.01267  Uiso   1.00
O1791  O     0.76523   0.83430   0.97411   0.01267  Uiso   1.00
O1792  O     0.70262   0.76030   0.97379   0.01267  Uiso   1.00
H1793  H     0.79030   0.58525   0.80615   0.01267  Uiso   1.00
H1794  H     0.82250   0.54740   0.84040   0.01267  Uiso   1.00
H1795  H     0.86815   0.72745   0.84875   0.01267  Uiso   1.00
H1796  H     0.83795   0.76445   0.81350   0.01267  Uiso   1.00
C1797  C     0.81115   0.67820   0.80606   0.01267  Uiso   1.00
C1798  C     0.80650   0.61400   0.81448   0.01267  Uiso   1.00
C1799  C     0.82540   0.59165   0.83500   0.01267  Uiso   1.00
C1800  C     0.84815   0.63315   0.84755   0.01267  Uiso   1.00
C1801  C     0.85275   0.69850   0.83985   0.01267  Uiso   1.00
C1802  C     0.83455   0.72050   0.81903   0.01267  Uiso   1.00
C1803  C     0.78960   0.70350   0.78418   0.01267  Uiso   1.00
N1804  N     0.86610   0.60480   0.86889   0.01267  Uiso   1.00
O1805  O     0.76523   0.66570   0.77589   0.01267  Uiso   1.00
O1806  O     0.70262   0.73970   0.77621   0.01267  Uiso   1.00
H1807  H     0.54030   0.83525   0.55615   0.01267  Uiso   1.00
H1808  H     0.57250   0.79740   0.59040   0.01267  Uiso   1.00
H1809  H     0.61815   0.97745   0.59875   0.01267  Uiso   1.00
H1810  H     0.58795   0.51445   0.56350   0.01267  Uiso   1.00
C1811  C     0.56115   0.92820   0.55606   0.01267  Uiso   1.00
C1812  C     0.55650   0.86400   0.56448   0.01267  Uiso   1.00
C1813  C     0.57540   0.84165   0.58500   0.01267  Uiso   1.00
C1814  C     0.59815   0.88315   0.59755   0.01267  Uiso   1.00
C1815  C     0.60275   0.94850   0.58985   0.01267  Uiso   1.00
C1816  C     0.58455   0.97050   0.56903   0.01267  Uiso   1.00
C1817  C     0.53960   0.95350   0.53418   0.01267  Uiso   1.00
N1818  N     0.61610   0.85480   0.61889   0.01267  Uiso   1.00
O1819  O     0.51522   0.91570   0.52589   0.01267  Uiso   1.00
O1820  O     0.95262   0.98970   0.52621   0.01267  Uiso   1.00
H1821  H     0.70970   0.91475   0.80615   0.01267  Uiso   1.00
H1822  H     0.67750   0.95260   0.84040   0.01267  Uiso   1.00
H1823  H     0.63185   0.77255   0.84875   0.01267  Uiso   1.00
H1824  H     0.66205   0.73555   0.81350   0.01267  Uiso   1.00
C1825  C     0.68885   0.82180   0.80606   0.01267  Uiso   1.00
C1826  C     0.69350   0.88600   0.81448   0.01267  Uiso   1.00
C1827  C     0.67460   0.90835   0.83500   0.01267  Uiso   1.00
C1828  C     0.65185   0.86685   0.84755   0.01267  Uiso   1.00
C1829  C     0.64725   0.80150   0.83985   0.01267  Uiso   1.00
C1830  C     0.66545   0.77950   0.81903   0.01267  Uiso   1.00
C1831  C     0.71040   0.79650   0.78419   0.01267  Uiso   1.00
N1832  N     0.63390   0.89520   0.86889   0.01267  Uiso   1.00
O1833  O     0.73477   0.83430   0.77589   0.01267  Uiso   1.00
O1834  O     0.79738   0.76030   0.77621   0.01267  Uiso   1.00
H1835  H     0.95970   0.66475   0.55615   0.01267  Uiso   1.00
H1836  H     0.92750   0.70260   0.59040   0.01267  Uiso   1.00
H1837  H     0.88185   0.52255   0.59875   0.01267  Uiso   1.00
H1838  H     0.91205   0.98555   0.56350   0.01267  Uiso   1.00
C1839  C     0.93885   0.57180   0.55606   0.01267  Uiso   1.00
C1840  C     0.94350   0.63600   0.56448   0.01267  Uiso   1.00
C1841  C     0.92460   0.65835   0.58500   0.01267  Uiso   1.00
C1842  C     0.90185   0.61685   0.59755   0.01267  Uiso   1.00
C1843  C     0.89725   0.55150   0.58985   0.01267  Uiso   1.00
C1844  C     0.91545   0.52950   0.56903   0.01267  Uiso   1.00
C1845  C     0.96040   0.54650   0.53419   0.01267  Uiso   1.00
N1846  N     0.88390   0.64520   0.61889   0.01267  Uiso   1.00
O1847  O     0.98478   0.58430   0.52589   0.01267  Uiso   1.00
O1848  O     0.54738   0.51030   0.52621   0.01267  Uiso   1.00
Cu1849 Cu    0.98055   0.55620   0.75000   0.01267  Uiso   1.00
Cu1850 Cu    0.73055   0.80620   0.50000   0.01267  Uiso   1.00
Cu1851 Cu    0.51945   0.94380   0.75000   0.01267  Uiso   1.00
Cu1852 Cu    0.76945   0.69380   0.50000   0.01267  Uiso   1.00
Cu1853 Cu    0.76945   0.80620   0.75000   0.01267  Uiso   1.00
Cu1854 Cu    0.51945   0.55620   0.50000   0.01267  Uiso   1.00
Cu1855 Cu    0.73055   0.69380   0.75000   0.01267  Uiso   1.00
Cu1856 Cu    0.98055   0.94380   0.50000   0.01267  Uiso   1.00
loop_
_geom_bond_atom_site_label_1
_geom_bond_atom_site_label_2
_geom_bond_distance
_geom_bond_site_symmetry_2
_ccdc_geom_bond_type
H1     C6      0.940   .     S
H2     C7      0.941   .     S
H3     C9      0.940   .     S
H4     C474    0.940   .     S
C5     C6      1.378   .     A
C5     C10     1.392   .     A
C5     C11     1.504   .     S
C6     C7      1.377   .     A
C7     C8      1.357   .     A
C8     C9      1.387   .     A
C8     N12     1.439   .     S
C9     C10     1.375   .     A
C10    H468    0.940   1_545 S
C11    O13     1.252   .     A
C11    O506    1.252   1_545 A
N12    N138    1.230   .     D
O13    Cu457   1.964   1_455 S
O14    C503    1.252   1_545 A
O14    Cu225   1.969   .     S
H15    C20     0.940   .     S
H16    C21     0.941   .     S
H17    C23     0.940   .     S
H18    C24     0.940   .     S
C19    C20     1.378   .     A
C19    C24     1.392   .     A
C19    C25     1.504   .     S
C20    C21     1.377   .     A
C21    C22     1.357   .     A
C22    C23     1.387   .     A
C22    N26     1.439   .     S
C23    C24     1.375   .     A
C25    O27     1.252   .     A
C25    O56     1.252   .     A
N26    N124    1.230   .     D
O27    Cu226   1.964   .     S
O28    C53     1.252   .     A
O28    Cu226   1.969   .     S
H29    C34     0.940   .     S
H30    C35     0.941   .     S
H31    C37     0.940   .     S
H32    C502    0.940   1_545 S
C33    C34     1.378   .     A
C33    C38     1.392   .     A
C33    C39     1.504   .     S
C34    C35     1.377   .     A
C35    C36     1.357   .     A
C36    C37     1.387   .     A
C36    N40     1.439   .     S
C37    C38     1.375   .     A
C38    H496    0.940   .     S
C39    O41     1.252   .     A
C39    O478    1.252   .     A
N40    N166    1.230   .     D
O41    Cu459   1.964   .     S
O42    C475    1.252   .     A
O42    Cu227   1.969   .     S
H43    C48     0.940   .     S
H44    C49     0.941   .     S
H45    C51     0.940   .     S
H46    C52     0.940   .     S
C47    C48     1.378   .     A
C47    C52     1.392   .     A
C47    C53     1.504   .     S
C48    C49     1.377   .     A
C49    C50     1.357   .     A
C50    C51     1.387   .     A
C50    N54     1.439   .     S
C51    C52     1.375   .     A
C53    O55     1.252   .     A
N54    N152    1.230   .     D
O55    Cu228   1.964   .     S
O56    Cu228   1.969   .     S
H57    C62     0.940   .     S
H58    C63     0.941   .     S
H59    C65     0.940   .     S
H60    C66     0.940   .     S
C61    C62     1.378   .     A
C61    C66     1.392   .     A
C61    C67     1.504   .     S
C62    C63     1.377   .     A
C63    C64     1.357   .     A
C64    C65     1.387   .     A
C64    N68     1.439   .     S
C65    C66     1.375   .     A
C67    O69     1.252   .     A
C67    O98     1.252   .     A
N68    N194    1.230   .     D
O69    Cu229   1.964   .     S
O70    C95     1.252   .     A
O70    Cu229   1.969   .     S
H71    C76     0.940   .     S
H72    C77     0.941   .     S
H73    C79     0.940   .     S
H74    C544    0.940   .     S
C75    C76     1.378   .     A
C75    C80     1.392   .     A
C75    C81     1.504   .     S
C76    C77     1.377   .     A
C77    C78     1.357   .     A
C78    C79     1.387   .     A
C78    N82     1.439   .     S
C79    C80     1.375   .     A
C80    H538    0.940   1_545 S
C81    O83     1.252   .     A
C81    O576    1.252   1_545 A
N82    N180    1.230   .     D
O83    Cu1390  1.964   .     S
O84    C573    1.252   1_545 A
O84    Cu1158  1.969   .     S
H85    C90     0.940   .     S
H86    C91     0.941   .     S
H87    C93     0.940   .     S
H88    C94     0.940   .     S
C89    C90     1.378   .     A
C89    C94     1.392   .     A
C89    C95     1.504   .     S
C90    C91     1.377   .     A
C91    C92     1.357   .     A
C92    C93     1.387   .     A
C92    N96     1.439   .     S
C93    C94     1.375   .     A
C95    O97     1.252   .     A
N96    N222    1.230   .     D
O97    Cu231   1.964   .     S
O98    Cu231   1.969   .     S
H99    C104    0.940   .     S
H100   C105    0.941   .     S
H101   C107    0.940   .     S
H102   C572    0.940   1_545 S
C103   C104    1.378   .     A
C103   C108    1.392   .     A
C103   C109    1.504   .     S
C104   C105    1.377   .     A
C105   C106    1.357   .     A
C106   C107    1.387   .     A
C106   N110    1.439   .     S
C107   C108    1.375   .     A
C108   H566    0.940   .     S
C109   O111    1.252   .     A
C109   O548    1.252   .     A
N110   N208    1.230   .     D
O111   Cu1392  1.964   1_455 S
O112   C545    1.252   .     A
O112   Cu1160  1.969   .     S
H113   C118    0.940   .     S
H114   C119    0.941   .     S
H115   C121    0.940   .     S
H116   C586    0.940   1_545 S
C117   C118    1.378   .     A
C117   C122    1.392   .     A
C117   C123    1.504   .     S
C118   C119    1.377   .     A
C119   C120    1.357   .     A
C120   C121    1.387   .     A
C120   N124    1.439   .     S
C121   C122    1.375   .     A
C122   H580    0.940   .     S
C123   O125    1.252   .     A
C123   O618    1.252   .     A
O125   Cu459   1.964   .     S
O126   C615    1.252   .     A
O126   Cu227   1.969   .     S
H127   C132    0.940   .     S
H128   C133    0.941   .     S
H129   C135    0.940   .     S
H130   C136    0.940   .     S
C131   C132    1.378   .     A
C131   C136    1.392   .     A
C131   C137    1.504   .     S
C132   C133    1.377   .     A
C133   C134    1.357   .     A
C134   C135    1.387   .     A
C134   N138    1.439   .     S
C135   C136    1.375   .     A
C137   O139    1.252   .     A
C137   O168    1.252   .     A
O139   Cu1156  1.964   .     S
O140   C165    1.252   .     A
O140   Cu1156  1.969   .     S
H141   C146    0.940   .     S
H142   C147    0.941   .     S
H143   C149    0.940   .     S
H144   C614    0.940   .     S
C145   C146    1.378   .     A
C145   C150    1.392   .     A
C145   C151    1.504   .     S
C146   C147    1.377   .     A
C147   C148    1.357   .     A
C148   C149    1.387   .     A
C148   N152    1.439   .     S
C149   C150    1.375   .     A
C150   H608    0.940   1_545 S
C151   O153    1.252   .     A
C151   O590    1.252   1_545 A
O153   Cu457   1.964   1_455 S
O154   C587    1.252   1_545 A
O154   Cu225   1.969   .     S
H155   C160    0.940   .     S
H156   C161    0.941   .     S
H157   C163    0.940   .     S
H158   C164    0.940   .     S
C159   C160    1.378   .     A
C159   C164    1.392   .     A
C159   C165    1.504   .     S
C160   C161    1.377   .     A
C161   C162    1.357   .     A
C162   C163    1.387   .     A
C162   N166    1.439   .     S
C163   C164    1.375   .     A
C165   O167    1.252   .     A
O167   Cu1154  1.964   .     S
O168   Cu1154  1.969   .     S
H169   C174    0.940   .     S
H170   C175    0.941   .     S
H171   C177    0.940   .     S
H172   C178    0.940   .     S
C173   C174    1.378   .     A
C173   C178    1.392   .     A
C173   C179    1.504   .     S
C174   C175    1.377   .     A
C175   C176    1.357   .     A
C176   C177    1.387   .     A
C176   N180    1.439   .     S
C177   C178    1.375   .     A
C179   O181    1.252   .     A
C179   O210    1.252   .     A
O181   Cu231   1.964   .     S
O182   C207    1.252   .     A
O182   Cu231   1.969   .     S
H183   C188    0.940   .     S
H184   C189    0.941   .     S
H185   C191    0.940   .     S
H186   C656    0.940   1_545 S
C187   C188    1.378   .     A
C187   C192    1.392   .     A
C187   C193    1.504   .     S
C188   C189    1.377   .     A
C189   C190    1.357   .     A
C190   C191    1.387   .     A
C190   N194    1.439   .     S
C191   C192    1.375   .     A
C192   H650    0.940   .     S
C193   O195    1.252   .     A
C193   O688    1.252   .     A
O195   Cu464   1.964   1_455 S
O196   C685    1.252   .     A
O196   Cu232   1.969   .     S
H197   C202    0.940   .     S
H198   C203    0.941   .     S
H199   C205    0.940   .     S
H200   C206    0.940   .     S
C201   C202    1.378   .     A
C201   C206    1.392   .     A
C201   C207    1.504   .     S
C202   C203    1.377   .     A
C203   C204    1.357   .     A
C204   C205    1.387   .     A
C204   N208    1.439   .     S
C205   C206    1.375   .     A
C207   O209    1.252   .     A
O209   Cu229   1.964   .     S
O210   Cu229   1.969   .     S
H211   C216    0.940   .     S
H212   C217    0.941   .     S
H213   C219    0.940   .     S
H214   C684    0.940   .     S
C215   C216    1.378   .     A
C215   C220    1.392   .     A
C215   C221    1.504   .     S
C216   C217    1.377   .     A
C217   C218    1.357   .     A
C218   C219    1.387   .     A
C218   N222    1.439   .     S
C219   C220    1.375   .     A
C220   H678    0.940   1_545 S
C221   O223    1.252   .     A
C221   O660    1.252   1_545 A
O223   Cu462   1.964   .     S
O224   C657    1.252   1_545 A
O224   Cu230   1.969   .     S
Cu225  Cu923   2.668   1_545 S
Cu225  O245    1.964   .     S
Cu225  O385    1.964   .     S
Cu226  Cu228   2.668   .     S
Cu226  O1095   1.964   1_554 S
Cu226  O1096   1.969   1_554 S
Cu227  Cu921   2.668   1_455 S
Cu227  O273    1.964   1_455 S
Cu227  O357    1.964   1_455 S
Cu228  O1067   1.964   1_554 S
Cu228  O1068   1.969   1_554 S
Cu229  Cu231   2.668   .     S
Cu230  Cu928   2.668   1_445 S
Cu230  O1243   1.964   1_454 S
Cu230  O455    1.964   1_455 S
Cu230  O1012   1.969   1_554 S
Cu232  Cu926   2.668   .     S
Cu232  O1271   1.964   1_554 S
Cu232  O427    1.964   .     S
Cu232  O1040   1.969   1_554 S
H233   C238    0.940   .     S
H234   C239    0.941   .     S
H235   C241    0.940   .     S
H236   C706    0.940   .     S
C237   C238    1.378   .     A
C237   C242    1.392   .     A
C237   C243    1.504   .     S
C238   C239    1.377   .     A
C239   C240    1.357   .     A
C240   C241    1.387   .     A
C240   N244    1.439   .     S
C241   C242    1.375   .     A
C242   H700    0.940   1_545 S
C243   O245    1.252   .     A
C243   O738    1.252   1_545 A
N244   N370    1.230   .     D
O246   C735    1.252   1_545 A
O246   Cu457   1.969   .     S
H247   C252    0.940   .     S
H248   C253    0.941   .     S
H249   C255    0.940   .     S
H250   C256    0.940   .     S
C251   C252    1.378   .     A
C251   C256    1.392   .     A
C251   C257    1.504   .     S
C252   C253    1.377   .     A
C253   C254    1.357   .     A
C254   C255    1.387   .     A
C254   N258    1.439   .     S
C255   C256    1.375   .     A
C257   O259    1.252   .     A
C257   O288    1.252   .     A
N258   N356    1.230   .     D
O259   Cu458   1.964   .     S
O260   C285    1.252   .     A
O260   Cu458   1.969   .     S
H261   C266    0.940   .     S
H262   C267    0.941   .     S
H263   C269    0.940   .     S
H264   C734    0.940   1_545 S
C265   C266    1.378   .     A
C265   C270    1.392   .     A
C265   C271    1.504   .     S
C266   C267    1.377   .     A
C267   C268    1.357   .     A
C268   C269    1.387   .     A
C268   N272    1.439   .     S
C269   C270    1.375   .     A
C270   H728    0.940   .     S
C271   O273    1.252   .     A
C271   O710    1.252   .     A
N272   N398    1.230   .     D
O273   Cu227   1.964   1_655 S
O274   C707    1.252   .     A
O274   Cu459   1.969   .     S
H275   C280    0.940   .     S
H276   C281    0.941   .     S
H277   C283    0.940   .     S
H278   C284    0.940   .     S
C279   C280    1.378   .     A
C279   C284    1.392   .     A
C279   C285    1.504   .     S
C280   C281    1.377   .     A
C281   C282    1.357   .     A
C282   C283    1.387   .     A
C282   N286    1.439   .     S
C283   C284    1.375   .     A
C285   O287    1.252   .     A
N286   N384    1.230   .     D
O287   Cu460   1.964   .     S
O288   Cu460   1.969   .     S
H289   C294    0.940   .     S
H290   C295    0.941   .     S
H291   C297    0.940   .     S
H292   C298    0.940   .     S
C293   C294    1.378   .     A
C293   C298    1.392   .     A
C293   C299    1.504   .     S
C294   C295    1.377   .     A
C295   C296    1.357   .     A
C296   C297    1.387   .     A
C296   N300    1.439   .     S
C297   C298    1.375   .     A
C299   O301    1.252   .     A
C299   O330    1.252   .     A
N300   N426    1.230   .     D
O301   Cu461   1.964   .     S
O302   C327    1.252   .     A
O302   Cu461   1.969   .     S
H303   C308    0.940   .     S
H304   C309    0.941   .     S
H305   C311    0.940   .     S
H306   C776    0.940   .     S
C307   C308    1.378   .     A
C307   C312    1.392   .     A
C307   C313    1.504   .     S
C308   C309    1.377   .     A
C309   C310    1.357   .     A
C310   C311    1.387   .     A
C310   N314    1.439   .     S
C311   C312    1.375   .     A
C312   H770    0.940   1_545 S
C313   O315    1.252   .     A
C313   O808    1.252   1_545 A
N314   N412    1.230   .     D
O315   Cu1158  1.964   1_655 S
O316   C805    1.252   1_545 A
O316   Cu1390  1.969   .     S
H317   C322    0.940   .     S
H318   C323    0.941   .     S
H319   C325    0.940   .     S
H320   C326    0.940   .     S
C321   C322    1.378   .     A
C321   C326    1.392   .     A
C321   C327    1.504   .     S
C322   C323    1.377   .     A
C323   C324    1.357   .     A
C324   C325    1.387   .     A
C324   N328    1.439   .     S
C325   C326    1.375   .     A
C327   O329    1.252   .     A
N328   N454    1.230   .     D
O329   Cu463   1.964   .     S
O330   Cu463   1.969   .     S
H331   C336    0.940   .     S
H332   C337    0.941   .     S
H333   C339    0.940   .     S
H334   C804    0.940   1_545 S
C335   C336    1.378   .     A
C335   C340    1.392   .     A
C335   C341    1.504   .     S
C336   C337    1.377   .     A
C337   C338    1.357   .     A
C338   C339    1.387   .     A
C338   N342    1.439   .     S
C339   C340    1.375   .     A
C340   H798    0.940   .     S
C341   O343    1.252   .     A
C341   O780    1.252   .     A
N342   N440    1.230   .     D
O343   Cu1160  1.964   .     S
O344   C777    1.252   .     A
O344   Cu1392  1.969   .     S
H345   C350    0.940   .     S
H346   C351    0.941   .     S
H347   C353    0.940   .     S
H348   C818    0.940   1_545 S
C349   C350    1.378   .     A
C349   C354    1.392   .     A
C349   C355    1.504   .     S
C350   C351    1.377   .     A
C351   C352    1.357   .     A
C352   C353    1.387   .     A
C352   N356    1.439   .     S
C353   C354    1.375   .     A
C354   H812    0.940   .     S
C355   O357    1.252   .     A
C355   O850    1.252   .     A
O357   Cu227   1.964   1_655 S
O358   C847    1.252   .     A
O358   Cu459   1.969   .     S
H359   C364    0.940   .     S
H360   C365    0.941   .     S
H361   C367    0.940   .     S
H362   C368    0.940   .     S
C363   C364    1.378   .     A
C363   C368    1.392   .     A
C363   C369    1.504   .     S
C364   C365    1.377   .     A
C365   C366    1.357   .     A
C366   C367    1.387   .     A
C366   N370    1.439   .     S
C367   C368    1.375   .     A
C369   O371    1.252   .     A
C369   O400    1.252   .     A
O371   Cu1388  1.964   .     S
O372   C397    1.252   .     A
O372   Cu1388  1.969   .     S
H373   C378    0.940   .     S
H374   C379    0.941   .     S
H375   C381    0.940   .     S
H376   C846    0.940   .     S
C377   C378    1.378   .     A
C377   C382    1.392   .     A
C377   C383    1.504   .     S
C378   C379    1.377   .     A
C379   C380    1.357   .     A
C380   C381    1.387   .     A
C380   N384    1.439   .     S
C381   C382    1.375   .     A
C382   H840    0.940   1_545 S
C383   O385    1.252   .     A
C383   O822    1.252   1_545 A
O386   C819    1.252   1_545 A
O386   Cu457   1.969   .     S
H387   C392    0.940   .     S
H388   C393    0.941   .     S
H389   C395    0.940   .     S
H390   C396    0.940   .     S
C391   C392    1.378   .     A
C391   C396    1.392   .     A
C391   C397    1.504   .     S
C392   C393    1.377   .     A
C393   C394    1.357   .     A
C394   C395    1.387   .     A
C394   N398    1.439   .     S
C395   C396    1.375   .     A
C397   O399    1.252   .     A
O399   Cu1386  1.964   .     S
O400   Cu1386  1.969   .     S
H401   C406    0.940   .     S
H402   C407    0.941   .     S
H403   C409    0.940   .     S
H404   C410    0.940   .     S
C405   C406    1.378   .     A
C405   C410    1.392   .     A
C405   C411    1.504   .     S
C406   C407    1.377   .     A
C407   C408    1.357   .     A
C408   C409    1.387   .     A
C408   N412    1.439   .     S
C409   C410    1.375   .     A
C411   O413    1.252   .     A
C411   O442    1.252   .     A
O413   Cu463   1.964   .     S
O414   C439    1.252   .     A
O414   Cu463   1.969   .     S
H415   C420    0.940   .     S
H416   C421    0.941   .     S
H417   C423    0.940   .     S
H418   C888    0.940   1_545 S
C419   C420    1.378   .     A
C419   C424    1.392   .     A
C419   C425    1.504   .     S
C420   C421    1.377   .     A
C421   C422    1.357   .     A
C422   C423    1.387   .     A
C422   N426    1.439   .     S
C423   C424    1.375   .     A
C424   H882    0.940   .     S
C425   O427    1.252   .     A
C425   O920    1.252   .     A
O428   C917    1.252   .     A
O428   Cu464   1.969   .     S
H429   C434    0.940   .     S
H430   C435    0.941   .     S
H431   C437    0.940   .     S
H432   C438    0.940   .     S
C433   C434    1.378   .     A
C433   C438    1.392   .     A
C433   C439    1.504   .     S
C434   C435    1.377   .     A
C435   C436    1.357   .     A
C436   C437    1.387   .     A
C436   N440    1.439   .     S
C437   C438    1.375   .     A
C439   O441    1.252   .     A
O441   Cu461   1.964   .     S
O442   Cu461   1.969   .     S
H443   C448    0.940   .     S
H444   C449    0.941   .     S
H445   C451    0.940   .     S
H446   C916    0.940   .     S
C447   C448    1.378   .     A
C447   C452    1.392   .     A
C447   C453    1.504   .     S
C448   C449    1.377   .     A
C449   C450    1.357   .     A
C450   C451    1.387   .     A
C450   N454    1.439   .     S
C451   C452    1.375   .     A
C452   H910    0.940   1_545 S
C453   O455    1.252   .     A
C453   O892    1.252   1_545 A
O455   Cu230   1.964   1_655 S
O456   C889    1.252   1_545 A
O456   Cu462   1.969   .     S
Cu457  Cu691   2.668   1_645 S
Cu457  O13     1.964   1_655 S
Cu457  O153    1.964   1_655 S
Cu458  Cu460   2.668   .     S
Cu458  O1327   1.964   1_554 S
Cu458  O1328   1.969   1_554 S
Cu459  Cu689   2.668   .     S
Cu460  O1299   1.964   1_554 S
Cu460  O1300   1.969   1_554 S
Cu461  Cu463   2.668   .     S
Cu462  Cu696   2.668   1_545 S
Cu462  O1011   1.964   1_554 S
Cu462  O1244   1.969   1_554 S
Cu464  Cu694   2.668   1_655 S
Cu464  O1039   1.964   1_654 S
Cu464  O195    1.964   1_655 S
Cu464  O1272   1.969   1_554 S
H465   C470    0.940   .     S
H466   C471    0.941   .     S
H467   C473    0.940   .     S
H468   C10     0.940   1_565 S
C469   C470    1.378   .     A
C469   C474    1.392   .     A
C469   C475    1.504   .     S
C470   C471    1.377   .     A
C471   C472    1.357   .     A
C472   C473    1.387   .     A
C472   N476    1.439   .     S
C473   C474    1.375   .     A
C475   O477    1.252   .     A
N476   N602    1.230   .     D
O477   Cu921   1.964   1_455 S
O478   Cu689   1.969   .     S
H479   C484    0.940   .     S
H480   C485    0.941   .     S
H481   C487    0.940   .     S
H482   C488    0.940   .     S
C483   C484    1.378   .     A
C483   C488    1.392   .     A
C483   C489    1.504   .     S
C484   C485    1.377   .     A
C485   C486    1.357   .     A
C486   C487    1.387   .     A
C486   N490    1.439   .     S
C487   C488    1.375   .     A
C489   O491    1.252   .     A
C489   O520    1.252   .     A
N490   N588    1.230   .     D
O491   Cu690   1.964   .     S
O492   C517    1.252   .     A
O492   Cu690   1.969   .     S
H493   C498    0.940   .     S
H494   C499    0.941   .     S
H495   C501    0.940   .     S
C497   C498    1.378   .     A
C497   C502    1.392   .     A
C497   C503    1.504   .     S
C498   C499    1.377   .     A
C499   C500    1.357   .     A
C500   C501    1.387   .     A
C500   N504    1.439   .     S
C501   C502    1.375   .     A
C502   H32     0.940   1_565 S
C503   O505    1.252   .     A
C503   O14     1.252   1_565 A
N504   N630    1.230   .     D
O505   Cu923   1.964   .     S
O506   C11     1.252   1_565 A
O506   Cu691   1.969   .     S
H507   C512    0.940   .     S
H508   C513    0.941   .     S
H509   C515    0.940   .     S
H510   C516    0.940   .     S
C511   C512    1.378   .     A
C511   C516    1.392   .     A
C511   C517    1.504   .     S
C512   C513    1.377   .     A
C513   C514    1.357   .     A
C514   C515    1.387   .     A
C514   N518    1.439   .     S
C515   C516    1.375   .     A
C517   O519    1.252   .     A
N518   N616    1.230   .     D
O519   Cu692   1.964   .     S
O520   Cu692   1.969   .     S
H521   C526    0.940   .     S
H522   C527    0.941   .     S
H523   C529    0.940   .     S
H524   C530    0.940   .     S
C525   C526    1.378   .     A
C525   C530    1.392   .     A
C525   C531    1.504   .     S
C526   C527    1.377   .     A
C527   C528    1.357   .     A
C528   C529    1.387   .     A
C528   N532    1.439   .     S
C529   C530    1.375   .     A
C531   O533    1.252   .     A
C531   O562    1.252   .     A
N532   N658    1.230   .     D
O533   Cu693   1.964   .     S
O534   C559    1.252   .     A
O534   Cu693   1.969   .     S
H535   C540    0.940   .     S
H536   C541    0.941   .     S
H537   C543    0.940   .     S
H538   C80     0.940   1_565 S
C539   C540    1.378   .     A
C539   C544    1.392   .     A
C539   C545    1.504   .     S
C540   C541    1.377   .     A
C541   C542    1.357   .     A
C542   C543    1.387   .     A
C542   N546    1.439   .     S
C543   C544    1.375   .     A
C545   O547    1.252   .     A
N546   N644    1.230   .     D
O547   Cu1854  1.964   .     S
O548   Cu1622  1.969   .     S
H549   C554    0.940   .     S
H550   C555    0.941   .     S
H551   C557    0.940   .     S
H552   C558    0.940   .     S
C553   C554    1.378   .     A
C553   C558    1.392   .     A
C553   C559    1.504   .     S
C554   C555    1.377   .     A
C555   C556    1.357   .     A
C556   C557    1.387   .     A
C556   N560    1.439   .     S
C557   C558    1.375   .     A
C559   O561    1.252   .     A
N560   N686    1.230   .     D
O561   Cu695   1.964   .     S
O562   Cu695   1.969   .     S
H563   C568    0.940   .     S
H564   C569    0.941   .     S
H565   C571    0.940   .     S
C567   C568    1.378   .     A
C567   C572    1.392   .     A
C567   C573    1.504   .     S
C568   C569    1.377   .     A
C569   C570    1.357   .     A
C570   C571    1.387   .     A
C570   N574    1.439   .     S
C571   C572    1.375   .     A
C572   H102    0.940   1_565 S
C573   O575    1.252   .     A
C573   O84     1.252   1_565 A
N574   N672    1.230   .     D
O575   Cu1856  1.964   1_455 S
O576   C81     1.252   1_565 A
O576   Cu1624  1.969   .     S
H577   C582    0.940   .     S
H578   C583    0.941   .     S
H579   C585    0.940   .     S
C581   C582    1.378   .     A
C581   C586    1.392   .     A
C581   C587    1.504   .     S
C582   C583    1.377   .     A
C583   C584    1.357   .     A
C584   C585    1.387   .     A
C584   N588    1.439   .     S
C585   C586    1.375   .     A
C586   H116    0.940   1_565 S
C587   O589    1.252   .     A
C587   O154    1.252   1_565 A
O589   Cu923   1.964   .     S
O590   C151    1.252   1_565 A
O590   Cu691   1.969   .     S
H591   C596    0.940   .     S
H592   C597    0.941   .     S
H593   C599    0.940   .     S
H594   C600    0.940   .     S
C595   C596    1.378   .     A
C595   C600    1.392   .     A
C595   C601    1.504   .     S
C596   C597    1.377   .     A
C597   C598    1.357   .     A
C598   C599    1.387   .     A
C598   N602    1.439   .     S
C599   C600    1.375   .     A
C601   O603    1.252   .     A
C601   O632    1.252   .     A
O603   Cu1620  1.964   .     S
O604   C629    1.252   .     A
O604   Cu1620  1.969   .     S
H605   C610    0.940   .     S
H606   C611    0.941   .     S
H607   C613    0.940   .     S
H608   C150    0.940   1_565 S
C609   C610    1.378   .     A
C609   C614    1.392   .     A
C609   C615    1.504   .     S
C610   C611    1.377   .     A
C611   C612    1.357   .     A
C612   C613    1.387   .     A
C612   N616    1.439   .     S
C613   C614    1.375   .     A
C615   O617    1.252   .     A
O617   Cu921   1.964   1_455 S
O618   Cu689   1.969   .     S
H619   C624    0.940   .     S
H620   C625    0.941   .     S
H621   C627    0.940   .     S
H622   C628    0.940   .     S
C623   C624    1.378   .     A
C623   C628    1.392   .     A
C623   C629    1.504   .     S
C624   C625    1.377   .     A
C625   C626    1.357   .     A
C626   C627    1.387   .     A
C626   N630    1.439   .     S
C627   C628    1.375   .     A
C629   O631    1.252   .     A
O631   Cu1618  1.964   .     S
O632   Cu1618  1.969   .     S
H633   C638    0.940   .     S
H634   C639    0.941   .     S
H635   C641    0.940   .     S
H636   C642    0.940   .     S
C637   C638    1.378   .     A
C637   C642    1.392   .     A
C637   C643    1.504   .     S
C638   C639    1.377   .     A
C639   C640    1.357   .     A
C640   C641    1.387   .     A
C640   N644    1.439   .     S
C641   C642    1.375   .     A
C643   O645    1.252   .     A
C643   O674    1.252   .     A
O645   Cu695   1.964   .     S
O646   C671    1.252   .     A
O646   Cu695   1.969   .     S
H647   C652    0.940   .     S
H648   C653    0.941   .     S
H649   C655    0.940   .     S
C651   C652    1.378   .     A
C651   C656    1.392   .     A
C651   C657    1.504   .     S
C652   C653    1.377   .     A
C653   C654    1.357   .     A
C654   C655    1.387   .     A
C654   N658    1.439   .     S
C655   C656    1.375   .     A
C656   H186    0.940   1_565 S
C657   O659    1.252   .     A
C657   O224    1.252   1_565 A
O659   Cu928   1.964   1_455 S
O660   C221    1.252   1_565 A
O660   Cu696   1.969   .     S
H661   C666    0.940   .     S
H662   C667    0.941   .     S
H663   C669    0.940   .     S
H664   C670    0.940   .     S
C665   C666    1.378   .     A
C665   C670    1.392   .     A
C665   C671    1.504   .     S
C666   C667    1.377   .     A
C667   C668    1.357   .     A
C668   C669    1.387   .     A
C668   N672    1.439   .     S
C669   C670    1.375   .     A
C671   O673    1.252   .     A
O673   Cu693   1.964   .     S
O674   Cu693   1.969   .     S
H675   C680    0.940   .     S
H676   C681    0.941   .     S
H677   C683    0.940   .     S
H678   C220    0.940   1_565 S
C679   C680    1.378   .     A
C679   C684    1.392   .     A
C679   C685    1.504   .     S
C680   C681    1.377   .     A
C681   C682    1.357   .     A
C682   C683    1.387   .     A
C682   N686    1.439   .     S
C683   C684    1.375   .     A
C685   O687    1.252   .     A
O687   Cu926   1.964   .     S
O688   Cu694   1.969   .     S
Cu689  O709    1.964   .     S
Cu689  O849    1.964   .     S
Cu690  Cu692   2.668   .     S
Cu690  O1559   1.964   1_554 S
Cu690  O1560   1.969   1_554 S
Cu691  Cu457   2.668   1_465 S
Cu691  O737    1.964   1_455 S
Cu691  O821    1.964   1_455 S
Cu692  O1531   1.964   1_554 S
Cu692  O1532   1.969   1_554 S
Cu693  Cu695   2.668   .     S
Cu694  Cu464   2.668   1_455 S
Cu694  O1707   1.964   1_454 S
Cu694  O919    1.964   1_455 S
Cu694  O1476   1.969   1_554 S
Cu696  Cu462   2.668   1_565 S
Cu696  O1735   1.964   1_554 S
Cu696  O891    1.964   .     S
Cu696  O1504   1.969   1_554 S
H697   C702    0.940   .     S
H698   C703    0.941   .     S
H699   C705    0.940   .     S
H700   C242    0.940   1_565 S
C701   C702    1.378   .     A
C701   C706    1.392   .     A
C701   C707    1.504   .     S
C702   C703    1.377   .     A
C703   C704    1.357   .     A
C704   C705    1.387   .     A
C704   N708    1.439   .     S
C705   C706    1.375   .     A
C707   O709    1.252   .     A
N708   N834    1.230   .     D
O710   Cu921   1.969   .     S
H711   C716    0.940   .     S
H712   C717    0.941   .     S
H713   C719    0.940   .     S
H714   C720    0.940   .     S
C715   C716    1.378   .     A
C715   C720    1.392   .     A
C715   C721    1.504   .     S
C716   C717    1.377   .     A
C717   C718    1.357   .     A
C718   C719    1.387   .     A
C718   N722    1.439   .     S
C719   C720    1.375   .     A
C721   O723    1.252   .     A
C721   O752    1.252   .     A
N722   N820    1.230   .     D
O723   Cu922   1.964   .     S
O724   C749    1.252   .     A
O724   Cu922   1.969   .     S
H725   C730    0.940   .     S
H726   C731    0.941   .     S
H727   C733    0.940   .     S
C729   C730    1.378   .     A
C729   C734    1.392   .     A
C729   C735    1.504   .     S
C730   C731    1.377   .     A
C731   C732    1.357   .     A
C732   C733    1.387   .     A
C732   N736    1.439   .     S
C733   C734    1.375   .     A
C734   H264    0.940   1_565 S
C735   O737    1.252   .     A
C735   O246    1.252   1_565 A
N736   N862    1.230   .     D
O737   Cu691   1.964   1_655 S
O738   C243    1.252   1_565 A
O738   Cu923   1.969   .     S
H739   C744    0.940   .     S
H740   C745    0.941   .     S
H741   C747    0.940   .     S
H742   C748    0.940   .     S
C743   C744    1.378   .     A
C743   C748    1.392   .     A
C743   C749    1.504   .     S
C744   C745    1.377   .     A
C745   C746    1.357   .     A
C746   C747    1.387   .     A
C746   N750    1.439   .     S
C747   C748    1.375   .     A
C749   O751    1.252   .     A
N750   N848    1.230   .     D
O751   Cu924   1.964   .     S
O752   Cu924   1.969   .     S
H753   C758    0.940   .     S
H754   C759    0.941   .     S
H755   C761    0.940   .     S
H756   C762    0.940   .     S
C757   C758    1.378   .     A
C757   C762    1.392   .     A
C757   C763    1.504   .     S
C758   C759    1.377   .     A
C759   C760    1.357   .     A
C760   C761    1.387   .     A
C760   N764    1.439   .     S
C761   C762    1.375   .     A
C763   O765    1.252   .     A
C763   O794    1.252   .     A
N764   N890    1.230   .     D
O765   Cu925   1.964   .     S
O766   C791    1.252   .     A
O766   Cu925   1.969   .     S
H767   C772    0.940   .     S
H768   C773    0.941   .     S
H769   C775    0.940   .     S
H770   C312    0.940   1_565 S
C771   C772    1.378   .     A
C771   C776    1.392   .     A
C771   C777    1.504   .     S
C772   C773    1.377   .     A
C773   C774    1.357   .     A
C774   C775    1.387   .     A
C774   N778    1.439   .     S
C775   C776    1.375   .     A
C777   O779    1.252   .     A
N778   N876    1.230   .     D
O779   Cu1622  1.964   1_655 S
O780   Cu1854  1.969   .     S
H781   C786    0.940   .     S
H782   C787    0.941   .     S
H783   C789    0.940   .     S
H784   C790    0.940   .     S
C785   C786    1.378   .     A
C785   C790    1.392   .     A
C785   C791    1.504   .     S
C786   C787    1.377   .     A
C787   C788    1.357   .     A
C788   C789    1.387   .     A
C788   N792    1.439   .     S
C789   C790    1.375   .     A
C791   O793    1.252   .     A
N792   N918    1.230   .     D
O793   Cu927   1.964   .     S
O794   Cu927   1.969   .     S
H795   C800    0.940   .     S
H796   C801    0.941   .     S
H797   C803    0.940   .     S
C799   C800    1.378   .     A
C799   C804    1.392   .     A
C799   C805    1.504   .     S
C800   C801    1.377   .     A
C801   C802    1.357   .     A
C802   C803    1.387   .     A
C802   N806    1.439   .     S
C803   C804    1.375   .     A
C804   H334    0.940   1_565 S
C805   O807    1.252   .     A
C805   O316    1.252   1_565 A
N806   N904    1.230   .     D
O807   Cu1624  1.964   .     S
O808   C313    1.252   1_565 A
O808   Cu1856  1.969   .     S
H809   C814    0.940   .     S
H810   C815    0.941   .     S
H811   C817    0.940   .     S
C813   C814    1.378   .     A
C813   C818    1.392   .     A
C813   C819    1.504   .     S
C814   C815    1.377   .     A
C815   C816    1.357   .     A
C816   C817    1.387   .     A
C816   N820    1.439   .     S
C817   C818    1.375   .     A
C818   H348    0.940   1_565 S
C819   O821    1.252   .     A
C819   O386    1.252   1_565 A
O821   Cu691   1.964   1_655 S
O822   C383    1.252   1_565 A
O822   Cu923   1.969   .     S
H823   C828    0.940   .     S
H824   C829    0.941   .     S
H825   C831    0.940   .     S
H826   C832    0.940   .     S
C827   C828    1.378   .     A
C827   C832    1.392   .     A
C827   C833    1.504   .     S
C828   C829    1.377   .     A
C829   C830    1.357   .     A
C830   C831    1.387   .     A
C830   N834    1.439   .     S
C831   C832    1.375   .     A
C833   O835    1.252   .     A
C833   O864    1.252   .     A
O835   Cu1852  1.964   .     S
O836   C861    1.252   .     A
O836   Cu1852  1.969   .     S
H837   C842    0.940   .     S
H838   C843    0.941   .     S
H839   C845    0.940   .     S
H840   C382    0.940   1_565 S
C841   C842    1.378   .     A
C841   C846    1.392   .     A
C841   C847    1.504   .     S
C842   C843    1.377   .     A
C843   C844    1.357   .     A
C844   C845    1.387   .     A
C844   N848    1.439   .     S
C845   C846    1.375   .     A
C847   O849    1.252   .     A
O850   Cu921   1.969   .     S
H851   C856    0.940   .     S
H852   C857    0.941   .     S
H853   C859    0.940   .     S
H854   C860    0.940   .     S
C855   C856    1.378   .     A
C855   C860    1.392   .     A
C855   C861    1.504   .     S
C856   C857    1.377   .     A
C857   C858    1.357   .     A
C858   C859    1.387   .     A
C858   N862    1.439   .     S
C859   C860    1.375   .     A
C861   O863    1.252   .     A
O863   Cu1850  1.964   .     S
O864   Cu1850  1.969   .     S
H865   C870    0.940   .     S
H866   C871    0.941   .     S
H867   C873    0.940   .     S
H868   C874    0.940   .     S
C869   C870    1.378   .     A
C869   C874    1.392   .     A
C869   C875    1.504   .     S
C870   C871    1.377   .     A
C871   C872    1.357   .     A
C872   C873    1.387   .     A
C872   N876    1.439   .     S
C873   C874    1.375   .     A
C875   O877    1.252   .     A
C875   O906    1.252   .     A
O877   Cu927   1.964   .     S
O878   C903    1.252   .     A
O878   Cu927   1.969   .     S
H879   C884    0.940   .     S
H880   C885    0.941   .     S
H881   C887    0.940   .     S
C883   C884    1.378   .     A
C883   C888    1.392   .     A
C883   C889    1.504   .     S
C884   C885    1.377   .     A
C885   C886    1.357   .     A
C886   C887    1.387   .     A
C886   N890    1.439   .     S
C887   C888    1.375   .     A
C888   H418    0.940   1_565 S
C889   O891    1.252   .     A
C889   O456    1.252   1_565 A
O892   C453    1.252   1_565 A
O892   Cu928   1.969   .     S
H893   C898    0.940   .     S
H894   C899    0.941   .     S
H895   C901    0.940   .     S
H896   C902    0.940   .     S
C897   C898    1.378   .     A
C897   C902    1.392   .     A
C897   C903    1.504   .     S
C898   C899    1.377   .     A
C899   C900    1.357   .     A
C900   C901    1.387   .     A
C900   N904    1.439   .     S
C901   C902    1.375   .     A
C903   O905    1.252   .     A
O905   Cu925   1.964   .     S
O906   Cu925   1.969   .     S
H907   C912    0.940   .     S
H908   C913    0.941   .     S
H909   C915    0.940   .     S
H910   C452    0.940   1_565 S
C911   C912    1.378   .     A
C911   C916    1.392   .     A
C911   C917    1.504   .     S
C912   C913    1.377   .     A
C913   C914    1.357   .     A
C914   C915    1.387   .     A
C914   N918    1.439   .     S
C915   C916    1.375   .     A
C917   O919    1.252   .     A
O919   Cu694   1.964   1_655 S
O920   Cu926   1.969   .     S
Cu921  Cu227   2.668   1_655 S
Cu921  O477    1.964   1_655 S
Cu921  O617    1.964   1_655 S
Cu922  Cu924   2.668   .     S
Cu922  O1791   1.964   1_554 S
Cu922  O1792   1.969   1_554 S
Cu923  Cu225   2.668   1_565 S
Cu924  O1763   1.964   1_554 S
Cu924  O1764   1.969   1_554 S
Cu925  Cu927   2.668   .     S
Cu926  O1475   1.964   1_554 S
Cu926  O1708   1.969   1_554 S
Cu928  Cu230   2.668   1_665 S
Cu928  O1503   1.964   1_654 S
Cu928  O659    1.964   1_655 S
Cu928  O1736   1.969   1_554 S
H929   C934    0.940   .     S
H930   C935    0.941   .     S
H931   C937    0.940   .     S
H932   C1402   0.940   .     S
C933   C934    1.378   .     A
C933   C938    1.392   .     A
C933   C939    1.504   .     S
C934   C935    1.377   .     A
C935   C936    1.357   .     A
C936   C937    1.387   .     A
C936   N940    1.439   .     S
C937   C938    1.375   .     A
C938   H1396   0.940   1_545 S
C939   O941    1.252   .     A
C939   O1434   1.252   1_545 A
N940   N1066   1.230   .     D
O941   Cu1385  1.964   1_455 S
O942   C1431   1.252   1_545 A
O942   Cu1153  1.969   .     S
H943   C948    0.940   .     S
H944   C949    0.941   .     S
H945   C951    0.940   .     S
H946   C952    0.940   .     S
C947   C948    1.378   .     A
C947   C952    1.392   .     A
C947   C953    1.504   .     S
C948   C949    1.377   .     A
C949   C950    1.357   .     A
C950   C951    1.387   .     A
C950   N954    1.439   .     S
C951   C952    1.375   .     A
C953   O955    1.252   .     A
C953   O984    1.252   .     A
N954   N1052   1.230   .     D
O955   Cu1154  1.964   .     S
O956   C981    1.252   .     A
O956   Cu1154  1.969   .     S
H957   C962    0.940   .     S
H958   C963    0.941   .     S
H959   C965    0.940   .     S
H960   C1430   0.940   1_545 S
C961   C962    1.378   .     A
C961   C966    1.392   .     A
C961   C967    1.504   .     S
C962   C963    1.377   .     A
C963   C964    1.357   .     A
C964   C965    1.387   .     A
C964   N968    1.439   .     S
C965   C966    1.375   .     A
C966   H1424   0.940   .     S
C967   O969    1.252   .     A
C967   O1406   1.252   .     A
N968   N1094   1.230   .     D
O969   Cu1387  1.964   .     S
O970   C1403   1.252   .     A
O970   Cu1155  1.969   .     S
H971   C976    0.940   .     S
H972   C977    0.941   .     S
H973   C979    0.940   .     S
H974   C980    0.940   .     S
C975   C976    1.378   .     A
C975   C980    1.392   .     A
C975   C981    1.504   .     S
C976   C977    1.377   .     A
C977   C978    1.357   .     A
C978   C979    1.387   .     A
C978   N982    1.439   .     S
C979   C980    1.375   .     A
C981   O983    1.252   .     A
N982   N1080   1.230   .     D
O983   Cu1156  1.964   .     S
O984   Cu1156  1.969   .     S
H985   C990    0.940   .     S
H986   C991    0.941   .     S
H987   C993    0.940   .     S
H988   C994    0.940   .     S
C989   C990    1.378   .     A
C989   C994    1.392   .     A
C989   C995    1.504   .     S
C990   C991    1.377   .     A
C991   C992    1.357   .     A
C992   C993    1.387   .     A
C992   N996    1.439   .     S
C993   C994    1.375   .     A
C995   O997    1.252   .     A
C995   O1026   1.252   .     A
N996   N1122   1.230   .     D
O997   Cu1157  1.964   .     S
O998   C1023   1.252   .     A
O998   Cu1157  1.969   .     S
H999   C1004   0.940   .     S
H1000  C1005   0.941   .     S
H1001  C1007   0.940   .     S
H1002  C1472   0.940   .     S
C1003  C1004   1.378   .     A
C1003  C1008   1.392   .     A
C1003  C1009   1.504   .     S
C1004  C1005   1.377   .     A
C1005  C1006   1.357   .     A
C1006  C1007   1.387   .     A
C1006  N1010   1.439   .     S
C1007  C1008   1.375   .     A
C1008  H1466   0.940   1_545 S
C1009  O1011   1.252   .     A
C1009  O1504   1.252   1_545 A
N1010  N1108   1.230   .     D
O1011  Cu462   1.964   1_556 S
O1012  C1501   1.252   1_545 A
O1012  Cu230   1.969   1_556 S
H1013  C1018   0.940   .     S
H1014  C1019   0.941   .     S
H1015  C1021   0.940   .     S
H1016  C1022   0.940   .     S
C1017  C1018   1.378   .     A
C1017  C1022   1.392   .     A
C1017  C1023   1.504   .     S
C1018  C1019   1.377   .     A
C1019  C1020   1.357   .     A
C1020  C1021   1.387   .     A
C1020  N1024   1.439   .     S
C1021  C1022   1.375   .     A
C1023  O1025   1.252   .     A
N1024  N1150   1.230   .     D
O1025  Cu1159  1.964   .     S
O1026  Cu1159  1.969   .     S
H1027  C1032   0.940   .     S
H1028  C1033   0.941   .     S
H1029  C1035   0.940   .     S
H1030  C1500   0.940   1_545 S
C1031  C1032   1.378   .     A
C1031  C1036   1.392   .     A
C1031  C1037   1.504   .     S
C1032  C1033   1.377   .     A
C1033  C1034   1.357   .     A
C1034  C1035   1.387   .     A
C1034  N1038   1.439   .     S
C1035  C1036   1.375   .     A
C1036  H1494   0.940   .     S
C1037  O1039   1.252   .     A
C1037  O1476   1.252   .     A
N1038  N1136   1.230   .     D
O1039  Cu464   1.964   1_456 S
O1040  C1473   1.252   .     A
O1040  Cu232   1.969   1_556 S
H1041  C1046   0.940   .     S
H1042  C1047   0.941   .     S
H1043  C1049   0.940   .     S
H1044  C1514   0.940   1_545 S
C1045  C1046   1.378   .     A
C1045  C1050   1.392   .     A
C1045  C1051   1.504   .     S
C1046  C1047   1.377   .     A
C1047  C1048   1.357   .     A
C1048  C1049   1.387   .     A
C1048  N1052   1.439   .     S
C1049  C1050   1.375   .     A
C1050  H1508   0.940   .     S
C1051  O1053   1.252   .     A
C1051  O1546   1.252   .     A
O1053  Cu1387  1.964   .     S
O1054  C1543   1.252   .     A
O1054  Cu1155  1.969   .     S
H1055  C1060   0.940   .     S
H1056  C1061   0.941   .     S
H1057  C1063   0.940   .     S
H1058  C1064   0.940   .     S
C1059  C1060   1.378   .     A
C1059  C1064   1.392   .     A
C1059  C1065   1.504   .     S
C1060  C1061   1.377   .     A
C1061  C1062   1.357   .     A
C1062  C1063   1.387   .     A
C1062  N1066   1.439   .     S
C1063  C1064   1.375   .     A
C1065  O1067   1.252   .     A
C1065  O1096   1.252   .     A
O1067  Cu228   1.964   1_556 S
O1068  C1093   1.252   .     A
O1068  Cu228   1.969   1_556 S
H1069  C1074   0.940   .     S
H1070  C1075   0.941   .     S
H1071  C1077   0.940   .     S
H1072  C1542   0.940   .     S
C1073  C1074   1.378   .     A
C1073  C1078   1.392   .     A
C1073  C1079   1.504   .     S
C1074  C1075   1.377   .     A
C1075  C1076   1.357   .     A
C1076  C1077   1.387   .     A
C1076  N1080   1.439   .     S
C1077  C1078   1.375   .     A
C1078  H1536   0.940   1_545 S
C1079  O1081   1.252   .     A
C1079  O1518   1.252   1_545 A
O1081  Cu1385  1.964   1_455 S
O1082  C1515   1.252   1_545 A
O1082  Cu1153  1.969   .     S
H1083  C1088   0.940   .     S
H1084  C1089   0.941   .     S
H1085  C1091   0.940   .     S
H1086  C1092   0.940   .     S
C1087  C1088   1.378   .     A
C1087  C1092   1.392   .     A
C1087  C1093   1.504   .     S
C1088  C1089   1.377   .     A
C1089  C1090   1.357   .     A
C1090  C1091   1.387   .     A
C1090  N1094   1.439   .     S
C1091  C1092   1.375   .     A
C1093  O1095   1.252   .     A
O1095  Cu226   1.964   1_556 S
O1096  Cu226   1.969   1_556 S
H1097  C1102   0.940   .     S
H1098  C1103   0.941   .     S
H1099  C1105   0.940   .     S
H1100  C1106   0.940   .     S
C1101  C1102   1.378   .     A
C1101  C1106   1.392   .     A
C1101  C1107   1.504   .     S
C1102  C1103   1.377   .     A
C1103  C1104   1.357   .     A
C1104  C1105   1.387   .     A
C1104  N1108   1.439   .     S
C1105  C1106   1.375   .     A
C1107  O1109   1.252   .     A
C1107  O1138   1.252   .     A
O1109  Cu1159  1.964   .     S
O1110  C1135   1.252   .     A
O1110  Cu1159  1.969   .     S
H1111  C1116   0.940   .     S
H1112  C1117   0.941   .     S
H1113  C1119   0.940   .     S
H1114  C1584   0.940   1_545 S
C1115  C1116   1.378   .     A
C1115  C1120   1.392   .     A
C1115  C1121   1.504   .     S
C1116  C1117   1.377   .     A
C1117  C1118   1.357   .     A
C1118  C1119   1.387   .     A
C1118  N1122   1.439   .     S
C1119  C1120   1.375   .     A
C1120  H1578   0.940   .     S
C1121  O1123   1.252   .     A
C1121  O1616   1.252   .     A
O1123  Cu1392  1.964   1_455 S
O1124  C1613   1.252   .     A
O1124  Cu1160  1.969   .     S
H1125  C1130   0.940   .     S
H1126  C1131   0.941   .     S
H1127  C1133   0.940   .     S
H1128  C1134   0.940   .     S
C1129  C1130   1.378   .     A
C1129  C1134   1.392   .     A
C1129  C1135   1.504   .     S
C1130  C1131   1.377   .     A
C1131  C1132   1.357   .     A
C1132  C1133   1.387   .     A
C1132  N1136   1.439   .     S
C1133  C1134   1.375   .     A
C1135  O1137   1.252   .     A
O1137  Cu1157  1.964   .     S
O1138  Cu1157  1.969   .     S
H1139  C1144   0.940   .     S
H1140  C1145   0.941   .     S
H1141  C1147   0.940   .     S
H1142  C1612   0.940   .     S
C1143  C1144   1.378   .     A
C1143  C1148   1.392   .     A
C1143  C1149   1.504   .     S
C1144  C1145   1.377   .     A
C1145  C1146   1.357   .     A
C1146  C1147   1.387   .     A
C1146  N1150   1.439   .     S
C1147  C1148   1.375   .     A
C1148  H1606   0.940   1_545 S
C1149  O1151   1.252   .     A
C1149  O1588   1.252   1_545 A
O1151  Cu1390  1.964   .     S
O1152  C1585   1.252   1_545 A
O1152  Cu1158  1.969   .     S
Cu1153 Cu1851  2.668   1_545 S
Cu1153 O1173   1.964   .     S
Cu1153 O1313   1.964   .     S
Cu1154 Cu1156  2.668   .     S
Cu1155 Cu1849  2.668   1_455 S
Cu1155 O1201   1.964   1_455 S
Cu1155 O1285   1.964   1_455 S
Cu1157 Cu1159  2.668   .     S
Cu1158 Cu1856  2.668   1_445 S
Cu1158 O315    1.964   1_455 S
Cu1158 O1383   1.964   1_455 S
Cu1160 Cu1854  2.668   .     S
Cu1160 O1355   1.964   .     S
H1161  C1166   0.940   .     S
H1162  C1167   0.941   .     S
H1163  C1169   0.940   .     S
H1164  C1634   0.940   .     S
C1165  C1166   1.378   .     A
C1165  C1170   1.392   .     A
C1165  C1171   1.504   .     S
C1166  C1167   1.377   .     A
C1167  C1168   1.357   .     A
C1168  C1169   1.387   .     A
C1168  N1172   1.439   .     S
C1169  C1170   1.375   .     A
C1170  H1628   0.940   1_545 S
C1171  O1173   1.252   .     A
C1171  O1666   1.252   1_545 A
N1172  N1298   1.230   .     D
O1174  C1663   1.252   1_545 A
O1174  Cu1385  1.969   .     S
H1175  C1180   0.940   .     S
H1176  C1181   0.941   .     S
H1177  C1183   0.940   .     S
H1178  C1184   0.940   .     S
C1179  C1180   1.378   .     A
C1179  C1184   1.392   .     A
C1179  C1185   1.504   .     S
C1180  C1181   1.377   .     A
C1181  C1182   1.357   .     A
C1182  C1183   1.387   .     A
C1182  N1186   1.439   .     S
C1183  C1184   1.375   .     A
C1185  O1187   1.252   .     A
C1185  O1216   1.252   .     A
N1186  N1284   1.230   .     D
O1187  Cu1386  1.964   .     S
O1188  C1213   1.252   .     A
O1188  Cu1386  1.969   .     S
H1189  C1194   0.940   .     S
H1190  C1195   0.941   .     S
H1191  C1197   0.940   .     S
H1192  C1662   0.940   1_545 S
C1193  C1194   1.378   .     A
C1193  C1198   1.392   .     A
C1193  C1199   1.504   .     S
C1194  C1195   1.377   .     A
C1195  C1196   1.357   .     A
C1196  C1197   1.387   .     A
C1196  N1200   1.439   .     S
C1197  C1198   1.375   .     A
C1198  H1656   0.940   .     S
C1199  O1201   1.252   .     A
C1199  O1638   1.252   .     A
N1200  N1326   1.230   .     D
O1201  Cu1155  1.964   1_655 S
O1202  C1635   1.252   .     A
O1202  Cu1387  1.969   .     S
H1203  C1208   0.940   .     S
H1204  C1209   0.941   .     S
H1205  C1211   0.940   .     S
H1206  C1212   0.940   .     S
C1207  C1208   1.378   .     A
C1207  C1212   1.392   .     A
C1207  C1213   1.504   .     S
C1208  C1209   1.377   .     A
C1209  C1210   1.357   .     A
C1210  C1211   1.387   .     A
C1210  N1214   1.439   .     S
C1211  C1212   1.375   .     A
C1213  O1215   1.252   .     A
N1214  N1312   1.230   .     D
O1215  Cu1388  1.964   .     S
O1216  Cu1388  1.969   .     S
H1217  C1222   0.940   .     S
H1218  C1223   0.941   .     S
H1219  C1225   0.940   .     S
H1220  C1226   0.940   .     S
C1221  C1222   1.378   .     A
C1221  C1226   1.392   .     A
C1221  C1227   1.504   .     S
C1222  C1223   1.377   .     A
C1223  C1224   1.357   .     A
C1224  C1225   1.387   .     A
C1224  N1228   1.439   .     S
C1225  C1226   1.375   .     A
C1227  O1229   1.252   .     A
C1227  O1258   1.252   .     A
N1228  N1354   1.230   .     D
O1229  Cu1389  1.964   .     S
O1230  C1255   1.252   .     A
O1230  Cu1389  1.969   .     S
H1231  C1236   0.940   .     S
H1232  C1237   0.941   .     S
H1233  C1239   0.940   .     S
H1234  C1704   0.940   .     S
C1235  C1236   1.378   .     A
C1235  C1240   1.392   .     A
C1235  C1241   1.504   .     S
C1236  C1237   1.377   .     A
C1237  C1238   1.357   .     A
C1238  C1239   1.387   .     A
C1238  N1242   1.439   .     S
C1239  C1240   1.375   .     A
C1240  H1698   0.940   1_545 S
C1241  O1243   1.252   .     A
C1241  O1736   1.252   1_545 A
N1242  N1340   1.230   .     D
O1243  Cu230   1.964   1_656 S
O1244  C1733   1.252   1_545 A
O1244  Cu462   1.969   1_556 S
H1245  C1250   0.940   .     S
H1246  C1251   0.941   .     S
H1247  C1253   0.940   .     S
H1248  C1254   0.940   .     S
C1249  C1250   1.378   .     A
C1249  C1254   1.392   .     A
C1249  C1255   1.504   .     S
C1250  C1251   1.377   .     A
C1251  C1252   1.357   .     A
C1252  C1253   1.387   .     A
C1252  N1256   1.439   .     S
C1253  C1254   1.375   .     A
C1255  O1257   1.252   .     A
N1256  N1382   1.230   .     D
O1257  Cu1391  1.964   .     S
O1258  Cu1391  1.969   .     S
H1259  C1264   0.940   .     S
H1260  C1265   0.941   .     S
H1261  C1267   0.940   .     S
H1262  C1732   0.940   1_545 S
C1263  C1264   1.378   .     A
C1263  C1268   1.392   .     A
C1263  C1269   1.504   .     S
C1264  C1265   1.377   .     A
C1265  C1266   1.357   .     A
C1266  C1267   1.387   .     A
C1266  N1270   1.439   .     S
C1267  C1268   1.375   .     A
C1268  H1726   0.940   .     S
C1269  O1271   1.252   .     A
C1269  O1708   1.252   .     A
N1270  N1368   1.230   .     D
O1271  Cu232   1.964   1_556 S
O1272  C1705   1.252   .     A
O1272  Cu464   1.969   1_556 S
H1273  C1278   0.940   .     S
H1274  C1279   0.941   .     S
H1275  C1281   0.940   .     S
H1276  C1746   0.940   1_545 S
C1277  C1278   1.378   .     A
C1277  C1282   1.392   .     A
C1277  C1283   1.504   .     S
C1278  C1279   1.377   .     A
C1279  C1280   1.357   .     A
C1280  C1281   1.387   .     A
C1280  N1284   1.439   .     S
C1281  C1282   1.375   .     A
C1282  H1740   0.940   .     S
C1283  O1285   1.252   .     A
C1283  O1778   1.252   .     A
O1285  Cu1155  1.964   1_655 S
O1286  C1775   1.252   .     A
O1286  Cu1387  1.969   .     S
H1287  C1292   0.940   .     S
H1288  C1293   0.941   .     S
H1289  C1295   0.940   .     S
H1290  C1296   0.940   .     S
C1291  C1292   1.378   .     A
C1291  C1296   1.392   .     A
C1291  C1297   1.504   .     S
C1292  C1293   1.377   .     A
C1293  C1294   1.357   .     A
C1294  C1295   1.387   .     A
C1294  N1298   1.439   .     S
C1295  C1296   1.375   .     A
C1297  O1299   1.252   .     A
C1297  O1328   1.252   .     A
O1299  Cu460   1.964   1_556 S
O1300  C1325   1.252   .     A
O1300  Cu460   1.969   1_556 S
H1301  C1306   0.940   .     S
H1302  C1307   0.941   .     S
H1303  C1309   0.940   .     S
H1304  C1774   0.940   .     S
C1305  C1306   1.378   .     A
C1305  C1310   1.392   .     A
C1305  C1311   1.504   .     S
C1306  C1307   1.377   .     A
C1307  C1308   1.357   .     A
C1308  C1309   1.387   .     A
C1308  N1312   1.439   .     S
C1309  C1310   1.375   .     A
C1310  H1768   0.940   1_545 S
C1311  O1313   1.252   .     A
C1311  O1750   1.252   1_545 A
O1314  C1747   1.252   1_545 A
O1314  Cu1385  1.969   .     S
H1315  C1320   0.940   .     S
H1316  C1321   0.941   .     S
H1317  C1323   0.940   .     S
H1318  C1324   0.940   .     S
C1319  C1320   1.378   .     A
C1319  C1324   1.392   .     A
C1319  C1325   1.504   .     S
C1320  C1321   1.377   .     A
C1321  C1322   1.357   .     A
C1322  C1323   1.387   .     A
C1322  N1326   1.439   .     S
C1323  C1324   1.375   .     A
C1325  O1327   1.252   .     A
O1327  Cu458   1.964   1_556 S
O1328  Cu458   1.969   1_556 S
H1329  C1334   0.940   .     S
H1330  C1335   0.941   .     S
H1331  C1337   0.940   .     S
H1332  C1338   0.940   .     S
C1333  C1334   1.378   .     A
C1333  C1338   1.392   .     A
C1333  C1339   1.504   .     S
C1334  C1335   1.377   .     A
C1335  C1336   1.357   .     A
C1336  C1337   1.387   .     A
C1336  N1340   1.439   .     S
C1337  C1338   1.375   .     A
C1339  O1341   1.252   .     A
C1339  O1370   1.252   .     A
O1341  Cu1391  1.964   .     S
O1342  C1367   1.252   .     A
O1342  Cu1391  1.969   .     S
H1343  C1348   0.940   .     S
H1344  C1349   0.941   .     S
H1345  C1351   0.940   .     S
H1346  C1816   0.940   1_545 S
C1347  C1348   1.378   .     A
C1347  C1352   1.392   .     A
C1347  C1353   1.504   .     S
C1348  C1349   1.377   .     A
C1349  C1350   1.357   .     A
C1350  C1351   1.387   .     A
C1350  N1354   1.439   .     S
C1351  C1352   1.375   .     A
C1352  H1810   0.940   .     S
C1353  O1355   1.252   .     A
C1353  O1848   1.252   .     A
O1356  C1845   1.252   .     A
O1356  Cu1392  1.969   .     S
H1357  C1362   0.940   .     S
H1358  C1363   0.941   .     S
H1359  C1365   0.940   .     S
H1360  C1366   0.940   .     S
C1361  C1362   1.378   .     A
C1361  C1366   1.392   .     A
C1361  C1367   1.504   .     S
C1362  C1363   1.377   .     A
C1363  C1364   1.357   .     A
C1364  C1365   1.387   .     A
C1364  N1368   1.439   .     S
C1365  C1366   1.375   .     A
C1367  O1369   1.252   .     A
O1369  Cu1389  1.964   .     S
O1370  Cu1389  1.969   .     S
H1371  C1376   0.940   .     S
H1372  C1377   0.941   .     S
H1373  C1379   0.940   .     S
H1374  C1844   0.940   .     S
C1375  C1376   1.378   .     A
C1375  C1380   1.392   .     A
C1375  C1381   1.504   .     S
C1376  C1377   1.377   .     A
C1377  C1378   1.357   .     A
C1378  C1379   1.387   .     A
C1378  N1382   1.439   .     S
C1379  C1380   1.375   .     A
C1380  H1838   0.940   1_545 S
C1381  O1383   1.252   .     A
C1381  O1820   1.252   1_545 A
O1383  Cu1158  1.964   1_655 S
O1384  C1817   1.252   1_545 A
O1384  Cu1390  1.969   .     S
Cu1385 Cu1619  2.668   1_645 S
Cu1385 O941    1.964   1_655 S
Cu1385 O1081   1.964   1_655 S
Cu1386 Cu1388  2.668   .     S
Cu1387 Cu1617  2.668   .     S
Cu1389 Cu1391  2.668   .     S
Cu1390 Cu1624  2.668   1_545 S
Cu1392 Cu1622  2.668   1_655 S
Cu1392 O111    1.964   1_655 S
Cu1392 O1123   1.964   1_655 S
H1393  C1398   0.940   .     S
H1394  C1399   0.941   .     S
H1395  C1401   0.940   .     S
H1396  C938    0.940   1_565 S
C1397  C1398   1.378   .     A
C1397  C1402   1.392   .     A
C1397  C1403   1.504   .     S
C1398  C1399   1.377   .     A
C1399  C1400   1.357   .     A
C1400  C1401   1.387   .     A
C1400  N1404   1.439   .     S
C1401  C1402   1.375   .     A
C1403  O1405   1.252   .     A
N1404  N1530   1.230   .     D
O1405  Cu1849  1.964   1_455 S
O1406  Cu1617  1.969   .     S
H1407  C1412   0.940   .     S
H1408  C1413   0.941   .     S
H1409  C1415   0.940   .     S
H1410  C1416   0.940   .     S
C1411  C1412   1.378   .     A
C1411  C1416   1.392   .     A
C1411  C1417   1.504   .     S
C1412  C1413   1.377   .     A
C1413  C1414   1.357   .     A
C1414  C1415   1.387   .     A
C1414  N1418   1.439   .     S
C1415  C1416   1.375   .     A
C1417  O1419   1.252   .     A
C1417  O1448   1.252   .     A
N1418  N1516   1.230   .     D
O1419  Cu1618  1.964   .     S
O1420  C1445   1.252   .     A
O1420  Cu1618  1.969   .     S
H1421  C1426   0.940   .     S
H1422  C1427   0.941   .     S
H1423  C1429   0.940   .     S
C1425  C1426   1.378   .     A
C1425  C1430   1.392   .     A
C1425  C1431   1.504   .     S
C1426  C1427   1.377   .     A
C1427  C1428   1.357   .     A
C1428  C1429   1.387   .     A
C1428  N1432   1.439   .     S
C1429  C1430   1.375   .     A
C1430  H960    0.940   1_565 S
C1431  O1433   1.252   .     A
C1431  O942    1.252   1_565 A
N1432  N1558   1.230   .     D
O1433  Cu1851  1.964   .     S
O1434  C939    1.252   1_565 A
O1434  Cu1619  1.969   .     S
H1435  C1440   0.940   .     S
H1436  C1441   0.941   .     S
H1437  C1443   0.940   .     S
H1438  C1444   0.940   .     S
C1439  C1440   1.378   .     A
C1439  C1444   1.392   .     A
C1439  C1445   1.504   .     S
C1440  C1441   1.377   .     A
C1441  C1442   1.357   .     A
C1442  C1443   1.387   .     A
C1442  N1446   1.439   .     S
C1443  C1444   1.375   .     A
C1445  O1447   1.252   .     A
N1446  N1544   1.230   .     D
O1447  Cu1620  1.964   .     S
O1448  Cu1620  1.969   .     S
H1449  C1454   0.940   .     S
H1450  C1455   0.941   .     S
H1451  C1457   0.940   .     S
H1452  C1458   0.940   .     S
C1453  C1454   1.378   .     A
C1453  C1458   1.392   .     A
C1453  C1459   1.504   .     S
C1454  C1455   1.377   .     A
C1455  C1456   1.357   .     A
C1456  C1457   1.387   .     A
C1456  N1460   1.439   .     S
C1457  C1458   1.375   .     A
C1459  O1461   1.252   .     A
C1459  O1490   1.252   .     A
N1460  N1586   1.230   .     D
O1461  Cu1621  1.964   .     S
O1462  C1487   1.252   .     A
O1462  Cu1621  1.969   .     S
H1463  C1468   0.940   .     S
H1464  C1469   0.941   .     S
H1465  C1471   0.940   .     S
H1466  C1008   0.940   1_565 S
C1467  C1468   1.378   .     A
C1467  C1472   1.392   .     A
C1467  C1473   1.504   .     S
C1468  C1469   1.377   .     A
C1469  C1470   1.357   .     A
C1470  C1471   1.387   .     A
C1470  N1474   1.439   .     S
C1471  C1472   1.375   .     A
C1473  O1475   1.252   .     A
N1474  N1572   1.230   .     D
O1475  Cu926   1.964   1_556 S
O1476  Cu694   1.969   1_556 S
H1477  C1482   0.940   .     S
H1478  C1483   0.941   .     S
H1479  C1485   0.940   .     S
H1480  C1486   0.940   .     S
C1481  C1482   1.378   .     A
C1481  C1486   1.392   .     A
C1481  C1487   1.504   .     S
C1482  C1483   1.377   .     A
C1483  C1484   1.357   .     A
C1484  C1485   1.387   .     A
C1484  N1488   1.439   .     S
C1485  C1486   1.375   .     A
C1487  O1489   1.252   .     A
N1488  N1614   1.230   .     D
O1489  Cu1623  1.964   .     S
O1490  Cu1623  1.969   .     S
H1491  C1496   0.940   .     S
H1492  C1497   0.941   .     S
H1493  C1499   0.940   .     S
C1495  C1496   1.378   .     A
C1495  C1500   1.392   .     A
C1495  C1501   1.504   .     S
C1496  C1497   1.377   .     A
C1497  C1498   1.357   .     A
C1498  C1499   1.387   .     A
C1498  N1502   1.439   .     S
C1499  C1500   1.375   .     A
C1500  H1030   0.940   1_565 S
C1501  O1503   1.252   .     A
C1501  O1012   1.252   1_565 A
N1502  N1600   1.230   .     D
O1503  Cu928   1.964   1_456 S
O1504  C1009   1.252   1_565 A
O1504  Cu696   1.969   1_556 S
H1505  C1510   0.940   .     S
H1506  C1511   0.941   .     S
H1507  C1513   0.940   .     S
C1509  C1510   1.378   .     A
C1509  C1514   1.392   .     A
C1509  C1515   1.504   .     S
C1510  C1511   1.377   .     A
C1511  C1512   1.357   .     A
C1512  C1513   1.387   .     A
C1512  N1516   1.439   .     S
C1513  C1514   1.375   .     A
C1514  H1044   0.940   1_565 S
C1515  O1517   1.252   .     A
C1515  O1082   1.252   1_565 A
O1517  Cu1851  1.964   .     S
O1518  C1079   1.252   1_565 A
O1518  Cu1619  1.969   .     S
H1519  C1524   0.940   .     S
H1520  C1525   0.941   .     S
H1521  C1527   0.940   .     S
H1522  C1528   0.940   .     S
C1523  C1524   1.378   .     A
C1523  C1528   1.392   .     A
C1523  C1529   1.504   .     S
C1524  C1525   1.377   .     A
C1525  C1526   1.357   .     A
C1526  C1527   1.387   .     A
C1526  N1530   1.439   .     S
C1527  C1528   1.375   .     A
C1529  O1531   1.252   .     A
C1529  O1560   1.252   .     A
O1531  Cu692   1.964   1_556 S
O1532  C1557   1.252   .     A
O1532  Cu692   1.969   1_556 S
H1533  C1538   0.940   .     S
H1534  C1539   0.941   .     S
H1535  C1541   0.940   .     S
H1536  C1078   0.940   1_565 S
C1537  C1538   1.378   .     A
C1537  C1542   1.392   .     A
C1537  C1543   1.504   .     S
C1538  C1539   1.377   .     A
C1539  C1540   1.357   .     A
C1540  C1541   1.387   .     A
C1540  N1544   1.439   .     S
C1541  C1542   1.375   .     A
C1543  O1545   1.252   .     A
O1545  Cu1849  1.964   1_455 S
O1546  Cu1617  1.969   .     S
H1547  C1552   0.940   .     S
H1548  C1553   0.941   .     S
H1549  C1555   0.940   .     S
H1550  C1556   0.940   .     S
C1551  C1552   1.378   .     A
C1551  C1556   1.392   .     A
C1551  C1557   1.504   .     S
C1552  C1553   1.377   .     A
C1553  C1554   1.357   .     A
C1554  C1555   1.387   .     A
C1554  N1558   1.439   .     S
C1555  C1556   1.375   .     A
C1557  O1559   1.252   .     A
O1559  Cu690   1.964   1_556 S
O1560  Cu690   1.969   1_556 S
H1561  C1566   0.940   .     S
H1562  C1567   0.941   .     S
H1563  C1569   0.940   .     S
H1564  C1570   0.940   .     S
C1565  C1566   1.378   .     A
C1565  C1570   1.392   .     A
C1565  C1571   1.504   .     S
C1566  C1567   1.377   .     A
C1567  C1568   1.357   .     A
C1568  C1569   1.387   .     A
C1568  N1572   1.439   .     S
C1569  C1570   1.375   .     A
C1571  O1573   1.252   .     A
C1571  O1602   1.252   .     A
O1573  Cu1623  1.964   .     S
O1574  C1599   1.252   .     A
O1574  Cu1623  1.969   .     S
H1575  C1580   0.940   .     S
H1576  C1581   0.941   .     S
H1577  C1583   0.940   .     S
C1579  C1580   1.378   .     A
C1579  C1584   1.392   .     A
C1579  C1585   1.504   .     S
C1580  C1581   1.377   .     A
C1581  C1582   1.357   .     A
C1582  C1583   1.387   .     A
C1582  N1586   1.439   .     S
C1583  C1584   1.375   .     A
C1584  H1114   0.940   1_565 S
C1585  O1587   1.252   .     A
C1585  O1152   1.252   1_565 A
O1587  Cu1856  1.964   1_455 S
O1588  C1149   1.252   1_565 A
O1588  Cu1624  1.969   .     S
H1589  C1594   0.940   .     S
H1590  C1595   0.941   .     S
H1591  C1597   0.940   .     S
H1592  C1598   0.940   .     S
C1593  C1594   1.378   .     A
C1593  C1598   1.392   .     A
C1593  C1599   1.504   .     S
C1594  C1595   1.377   .     A
C1595  C1596   1.357   .     A
C1596  C1597   1.387   .     A
C1596  N1600   1.439   .     S
C1597  C1598   1.375   .     A
C1599  O1601   1.252   .     A
O1601  Cu1621  1.964   .     S
O1602  Cu1621  1.969   .     S
H1603  C1608   0.940   .     S
H1604  C1609   0.941   .     S
H1605  C1611   0.940   .     S
H1606  C1148   0.940   1_565 S
C1607  C1608   1.378   .     A
C1607  C1612   1.392   .     A
C1607  C1613   1.504   .     S
C1608  C1609   1.377   .     A
C1609  C1610   1.357   .     A
C1610  C1611   1.387   .     A
C1610  N1614   1.439   .     S
C1611  C1612   1.375   .     A
C1613  O1615   1.252   .     A
O1615  Cu1854  1.964   .     S
O1616  Cu1622  1.969   .     S
Cu1617 O1637   1.964   .     S
Cu1617 O1777   1.964   .     S
Cu1618 Cu1620  2.668   .     S
Cu1619 Cu1385  2.668   1_465 S
Cu1619 O1665   1.964   1_455 S
Cu1619 O1749   1.964   1_455 S
Cu1621 Cu1623  2.668   .     S
Cu1622 Cu1392  2.668   1_455 S
Cu1622 O779    1.964   1_455 S
Cu1622 O1847   1.964   1_455 S
Cu1624 Cu1390  2.668   1_565 S
Cu1624 O1819   1.964   .     S
H1625  C1630   0.940   .     S
H1626  C1631   0.941   .     S
H1627  C1633   0.940   .     S
H1628  C1170   0.940   1_565 S
C1629  C1630   1.378   .     A
C1629  C1634   1.392   .     A
C1629  C1635   1.504   .     S
C1630  C1631   1.377   .     A
C1631  C1632   1.357   .     A
C1632  C1633   1.387   .     A
C1632  N1636   1.439   .     S
C1633  C1634   1.375   .     A
C1635  O1637   1.252   .     A
N1636  N1762   1.230   .     D
O1638  Cu1849  1.969   .     S
H1639  C1644   0.940   .     S
H1640  C1645   0.941   .     S
H1641  C1647   0.940   .     S
H1642  C1648   0.940   .     S
C1643  C1644   1.378   .     A
C1643  C1648   1.392   .     A
C1643  C1649   1.504   .     S
C1644  C1645   1.377   .     A
C1645  C1646   1.357   .     A
C1646  C1647   1.387   .     A
C1646  N1650   1.439   .     S
C1647  C1648   1.375   .     A
C1649  O1651   1.252   .     A
C1649  O1680   1.252   .     A
N1650  N1748   1.230   .     D
O1651  Cu1850  1.964   .     S
O1652  C1677   1.252   .     A
O1652  Cu1850  1.969   .     S
H1653  C1658   0.940   .     S
H1654  C1659   0.941   .     S
H1655  C1661   0.940   .     S
C1657  C1658   1.378   .     A
C1657  C1662   1.392   .     A
C1657  C1663   1.504   .     S
C1658  C1659   1.377   .     A
C1659  C1660   1.357   .     A
C1660  C1661   1.387   .     A
C1660  N1664   1.439   .     S
C1661  C1662   1.375   .     A
C1662  H1192   0.940   1_565 S
C1663  O1665   1.252   .     A
C1663  O1174   1.252   1_565 A
N1664  N1790   1.230   .     D
O1665  Cu1619  1.964   1_655 S
O1666  C1171   1.252   1_565 A
O1666  Cu1851  1.969   .     S
H1667  C1672   0.940   .     S
H1668  C1673   0.941   .     S
H1669  C1675   0.940   .     S
H1670  C1676   0.940   .     S
C1671  C1672   1.378   .     A
C1671  C1676   1.392   .     A
C1671  C1677   1.504   .     S
C1672  C1673   1.377   .     A
C1673  C1674   1.357   .     A
C1674  C1675   1.387   .     A
C1674  N1678   1.439   .     S
C1675  C1676   1.375   .     A
C1677  O1679   1.252   .     A
N1678  N1776   1.230   .     D
O1679  Cu1852  1.964   .     S
O1680  Cu1852  1.969   .     S
H1681  C1686   0.940   .     S
H1682  C1687   0.941   .     S
H1683  C1689   0.940   .     S
H1684  C1690   0.940   .     S
C1685  C1686   1.378   .     A
C1685  C1690   1.392   .     A
C1685  C1691   1.504   .     S
C1686  C1687   1.377   .     A
C1687  C1688   1.357   .     A
C1688  C1689   1.387   .     A
C1688  N1692   1.439   .     S
C1689  C1690   1.375   .     A
C1691  O1693   1.252   .     A
C1691  O1722   1.252   .     A
N1692  N1818   1.230   .     D
O1693  Cu1853  1.964   .     S
O1694  C1719   1.252   .     A
O1694  Cu1853  1.969   .     S
H1695  C1700   0.940   .     S
H1696  C1701   0.941   .     S
H1697  C1703   0.940   .     S
H1698  C1240   0.940   1_565 S
C1699  C1700   1.378   .     A
C1699  C1704   1.392   .     A
C1699  C1705   1.504   .     S
C1700  C1701   1.377   .     A
C1701  C1702   1.357   .     A
C1702  C1703   1.387   .     A
C1702  N1706   1.439   .     S
C1703  C1704   1.375   .     A
C1705  O1707   1.252   .     A
N1706  N1804   1.230   .     D
O1707  Cu694   1.964   1_656 S
O1708  Cu926   1.969   1_556 S
H1709  C1714   0.940   .     S
H1710  C1715   0.941   .     S
H1711  C1717   0.940   .     S
H1712  C1718   0.940   .     S
C1713  C1714   1.378   .     A
C1713  C1718   1.392   .     A
C1713  C1719   1.504   .     S
C1714  C1715   1.377   .     A
C1715  C1716   1.357   .     A
C1716  C1717   1.387   .     A
C1716  N1720   1.439   .     S
C1717  C1718   1.375   .     A
C1719  O1721   1.252   .     A
N1720  N1846   1.230   .     D
O1721  Cu1855  1.964   .     S
O1722  Cu1855  1.969   .     S
H1723  C1728   0.940   .     S
H1724  C1729   0.941   .     S
H1725  C1731   0.940   .     S
C1727  C1728   1.378   .     A
C1727  C1732   1.392   .     A
C1727  C1733   1.504   .     S
C1728  C1729   1.377   .     A
C1729  C1730   1.357   .     A
C1730  C1731   1.387   .     A
C1730  N1734   1.439   .     S
C1731  C1732   1.375   .     A
C1732  H1262   0.940   1_565 S
C1733  O1735   1.252   .     A
C1733  O1244   1.252   1_565 A
N1734  N1832   1.230   .     D
O1735  Cu696   1.964   1_556 S
O1736  C1241   1.252   1_565 A
O1736  Cu928   1.969   1_556 S
H1737  C1742   0.940   .     S
H1738  C1743   0.941   .     S
H1739  C1745   0.940   .     S
C1741  C1742   1.378   .     A
C1741  C1746   1.392   .     A
C1741  C1747   1.504   .     S
C1742  C1743   1.377   .     A
C1743  C1744   1.357   .     A
C1744  C1745   1.387   .     A
C1744  N1748   1.439   .     S
C1745  C1746   1.375   .     A
C1746  H1276   0.940   1_565 S
C1747  O1749   1.252   .     A
C1747  O1314   1.252   1_565 A
O1749  Cu1619  1.964   1_655 S
O1750  C1311   1.252   1_565 A
O1750  Cu1851  1.969   .     S
H1751  C1756   0.940   .     S
H1752  C1757   0.941   .     S
H1753  C1759   0.940   .     S
H1754  C1760   0.940   .     S
C1755  C1756   1.378   .     A
C1755  C1760   1.392   .     A
C1755  C1761   1.504   .     S
C1756  C1757   1.377   .     A
C1757  C1758   1.357   .     A
C1758  C1759   1.387   .     A
C1758  N1762   1.439   .     S
C1759  C1760   1.375   .     A
C1761  O1763   1.252   .     A
C1761  O1792   1.252   .     A
O1763  Cu924   1.964   1_556 S
O1764  C1789   1.252   .     A
O1764  Cu924   1.969   1_556 S
H1765  C1770   0.940   .     S
H1766  C1771   0.941   .     S
H1767  C1773   0.940   .     S
H1768  C1310   0.940   1_565 S
C1769  C1770   1.378   .     A
C1769  C1774   1.392   .     A
C1769  C1775   1.504   .     S
C1770  C1771   1.377   .     A
C1771  C1772   1.357   .     A
C1772  C1773   1.387   .     A
C1772  N1776   1.439   .     S
C1773  C1774   1.375   .     A
C1775  O1777   1.252   .     A
O1778  Cu1849  1.969   .     S
H1779  C1784   0.940   .     S
H1780  C1785   0.941   .     S
H1781  C1787   0.940   .     S
H1782  C1788   0.940   .     S
C1783  C1784   1.378   .     A
C1783  C1788   1.392   .     A
C1783  C1789   1.504   .     S
C1784  C1785   1.377   .     A
C1785  C1786   1.357   .     A
C1786  C1787   1.387   .     A
C1786  N1790   1.439   .     S
C1787  C1788   1.375   .     A
C1789  O1791   1.252   .     A
O1791  Cu922   1.964   1_556 S
O1792  Cu922   1.969   1_556 S
H1793  C1798   0.940   .     S
H1794  C1799   0.941   .     S
H1795  C1801   0.940   .     S
H1796  C1802   0.940   .     S
C1797  C1798   1.378   .     A
C1797  C1802   1.392   .     A
C1797  C1803   1.504   .     S
C1798  C1799   1.377   .     A
C1799  C1800   1.357   .     A
C1800  C1801   1.387   .     A
C1800  N1804   1.439   .     S
C1801  C1802   1.375   .     A
C1803  O1805   1.252   .     A
C1803  O1834   1.252   .     A
O1805  Cu1855  1.964   .     S
O1806  C1831   1.252   .     A
O1806  Cu1855  1.969   .     S
H1807  C1812   0.940   .     S
H1808  C1813   0.941   .     S
H1809  C1815   0.940   .     S
C1811  C1812   1.378   .     A
C1811  C1816   1.392   .     A
C1811  C1817   1.504   .     S
C1812  C1813   1.377   .     A
C1813  C1814   1.357   .     A
C1814  C1815   1.387   .     A
C1814  N1818   1.439   .     S
C1815  C1816   1.375   .     A
C1816  H1346   0.940   1_565 S
C1817  O1819   1.252   .     A
C1817  O1384   1.252   1_565 A
O1820  C1381   1.252   1_565 A
O1820  Cu1856  1.969   .     S
H1821  C1826   0.940   .     S
H1822  C1827   0.941   .     S
H1823  C1829   0.940   .     S
H1824  C1830   0.940   .     S
C1825  C1826   1.378   .     A
C1825  C1830   1.392   .     A
C1825  C1831   1.504   .     S
C1826  C1827   1.377   .     A
C1827  C1828   1.357   .     A
C1828  C1829   1.387   .     A
C1828  N1832   1.439   .     S
C1829  C1830   1.375   .     A
C1831  O1833   1.252   .     A
O1833  Cu1853  1.964   .     S
O1834  Cu1853  1.969   .     S
H1835  C1840   0.940   .     S
H1836  C1841   0.941   .     S
H1837  C1843   0.940   .     S
H1838  C1380   0.940   1_565 S
C1839  C1840   1.378   .     A
C1839  C1844   1.392   .     A
C1839  C1845   1.504   .     S
C1840  C1841   1.377   .     A
C1841  C1842   1.357   .     A
C1842  C1843   1.387   .     A
C1842  N1846   1.439   .     S
C1843  C1844   1.375   .     A
C1845  O1847   1.252   .     A
O1847  Cu1622  1.964   1_655 S
O1848  Cu1854  1.969   .     S
Cu1849 Cu1155  2.668   1_655 S
Cu1849 O1405   1.964   1_655 S
Cu1849 O1545   1.964   1_655 S
Cu1850 Cu1852  2.668   .     S
Cu1851 Cu1153  2.668   1_565 S
Cu1853 Cu1855  2.668   .     S
Cu1856 Cu1158  2.668   1_665 S
Cu1856 O575    1.964   1_655 S
Cu1856 O1587   1.964   1_655 S
