data_MEHMET_clean
_audit_creation_date              2015-01-20
_audit_creation_method            'Materials Studio'
_symmetry_space_group_name_H-M    'P1'
_symmetry_Int_Tables_number       1
_symmetry_cell_setting            triclinic
loop_
_symmetry_equiv_pos_as_xyz
  x,y,z
_cell_length_a                    48.8930
_cell_length_b                    48.8930
_cell_length_c                    48.8930
_cell_angle_alpha                 90.0000
_cell_angle_beta                  90.0000
_cell_angle_gamma                 90.0000
loop_
_atom_site_label
_atom_site_type_symbol
_atom_site_fract_x
_atom_site_fract_y
_atom_site_fract_z
_atom_site_U_iso_or_equiv
_atom_site_adp_type
_atom_site_occupancy
H1     H     0.44000   0.20440   0.38000   0.01267  Uiso   1.00
C2     C     0.46337   0.15761   0.39014   0.01267  Uiso   1.00
C3     C     0.44108   0.17459   0.40656   0.01267  Uiso   1.00
C4     C     0.43272   0.19747   0.39641   0.01267  Uiso   1.00
O5     O     0.47192   0.13750   0.40180   0.01267  Uiso   1.00
O6     O     0.47119   0.17028   0.36939   0.01267  Uiso   1.00
H7     H     0.44000   0.70440   0.88000   0.01267  Uiso   1.00
C8     C     0.46337   0.65761   0.89014   0.01267  Uiso   1.00
C9     C     0.44108   0.67459   0.90656   0.01267  Uiso   1.00
C10    C     0.43272   0.69747   0.89641   0.01267  Uiso   1.00
O11    O     0.47192   0.63750   0.90180   0.01267  Uiso   1.00
O12    O     0.47119   0.67028   0.86939   0.01267  Uiso   1.00
H13    H     0.94000   0.20440   0.88000   0.01267  Uiso   1.00
C14    C     0.96337   0.15761   0.89014   0.01267  Uiso   1.00
C15    C     0.94108   0.17459   0.90656   0.01267  Uiso   1.00
C16    C     0.93272   0.19747   0.89641   0.01267  Uiso   1.00
O17    O     0.97192   0.13750   0.90180   0.01267  Uiso   1.00
O18    O     0.97119   0.17028   0.86939   0.01267  Uiso   1.00
H19    H     0.94000   0.70440   0.38000   0.01267  Uiso   1.00
C20    C     0.96337   0.65761   0.39014   0.01267  Uiso   1.00
C21    C     0.94108   0.67459   0.40656   0.01267  Uiso   1.00
C22    C     0.93272   0.69747   0.39641   0.01267  Uiso   1.00
O23    O     0.97192   0.63750   0.40180   0.01267  Uiso   1.00
O24    O     0.97119   0.67028   0.36939   0.01267  Uiso   1.00
H25    H     0.56000   0.79560   0.38000   0.01267  Uiso   1.00
C26    C     0.53663   0.84239   0.39014   0.01267  Uiso   1.00
C27    C     0.55892   0.82541   0.40656   0.01267  Uiso   1.00
C28    C     0.56728   0.80253   0.39641   0.01267  Uiso   1.00
O29    O     0.52808   0.86250   0.40180   0.01267  Uiso   1.00
O30    O     0.52881   0.82972   0.36939   0.01267  Uiso   1.00
H31    H     0.56000   0.29560   0.88000   0.01267  Uiso   1.00
C32    C     0.53663   0.34239   0.89014   0.01267  Uiso   1.00
C33    C     0.55892   0.32541   0.90656   0.01267  Uiso   1.00
C34    C     0.56728   0.30253   0.89641   0.01267  Uiso   1.00
O35    O     0.52808   0.36250   0.90180   0.01267  Uiso   1.00
O36    O     0.52881   0.32972   0.86939   0.01267  Uiso   1.00
H37    H     0.06000   0.79560   0.88000   0.01267  Uiso   1.00
C38    C     0.03663   0.84239   0.89014   0.01267  Uiso   1.00
C39    C     0.05892   0.82541   0.90656   0.01267  Uiso   1.00
C40    C     0.06728   0.80253   0.89641   0.01267  Uiso   1.00
O41    O     0.02808   0.86250   0.90180   0.01267  Uiso   1.00
O42    O     0.02881   0.82972   0.86939   0.01267  Uiso   1.00
H43    H     0.06000   0.29560   0.38000   0.01267  Uiso   1.00
C44    C     0.03663   0.34239   0.39014   0.01267  Uiso   1.00
C45    C     0.05892   0.32541   0.40656   0.01267  Uiso   1.00
C46    C     0.06728   0.30253   0.39641   0.01267  Uiso   1.00
O47    O     0.02808   0.36250   0.40180   0.01267  Uiso   1.00
O48    O     0.02881   0.32972   0.36939   0.01267  Uiso   1.00
H49    H     0.56000   0.20440   0.62000   0.01267  Uiso   1.00
C50    C     0.53663   0.15761   0.60986   0.01267  Uiso   1.00
C51    C     0.55892   0.17459   0.59344   0.01267  Uiso   1.00
C52    C     0.56728   0.19747   0.60359   0.01267  Uiso   1.00
O53    O     0.52808   0.13750   0.59820   0.01267  Uiso   1.00
O54    O     0.52881   0.17028   0.63061   0.01267  Uiso   1.00
H55    H     0.56000   0.70440   0.12000   0.01267  Uiso   1.00
C56    C     0.53663   0.65761   0.10986   0.01267  Uiso   1.00
C57    C     0.55892   0.67459   0.09344   0.01267  Uiso   1.00
C58    C     0.56728   0.69747   0.10359   0.01267  Uiso   1.00
O59    O     0.52808   0.63750   0.09820   0.01267  Uiso   1.00
O60    O     0.52881   0.67028   0.13061   0.01267  Uiso   1.00
H61    H     0.06000   0.20440   0.12000   0.01267  Uiso   1.00
C62    C     0.03663   0.15761   0.10986   0.01267  Uiso   1.00
C63    C     0.05892   0.17459   0.09344   0.01267  Uiso   1.00
C64    C     0.06728   0.19747   0.10359   0.01267  Uiso   1.00
O65    O     0.02808   0.13750   0.09820   0.01267  Uiso   1.00
O66    O     0.02881   0.17028   0.13061   0.01267  Uiso   1.00
H67    H     0.06000   0.70440   0.62000   0.01267  Uiso   1.00
C68    C     0.03663   0.65761   0.60986   0.01267  Uiso   1.00
C69    C     0.05892   0.67459   0.59344   0.01267  Uiso   1.00
C70    C     0.06728   0.69747   0.60359   0.01267  Uiso   1.00
O71    O     0.02808   0.63750   0.59820   0.01267  Uiso   1.00
O72    O     0.02881   0.67028   0.63061   0.01267  Uiso   1.00
H73    H     0.44000   0.79560   0.62000   0.01267  Uiso   1.00
C74    C     0.46337   0.84239   0.60986   0.01267  Uiso   1.00
C75    C     0.44108   0.82541   0.59344   0.01267  Uiso   1.00
C76    C     0.43272   0.80253   0.60359   0.01267  Uiso   1.00
O77    O     0.47192   0.86250   0.59820   0.01267  Uiso   1.00
O78    O     0.47119   0.82972   0.63061   0.01267  Uiso   1.00
H79    H     0.44000   0.29560   0.12000   0.01267  Uiso   1.00
C80    C     0.46337   0.34239   0.10986   0.01267  Uiso   1.00
C81    C     0.44108   0.32541   0.09344   0.01267  Uiso   1.00
C82    C     0.43272   0.30253   0.10359   0.01267  Uiso   1.00
O83    O     0.47192   0.36250   0.09820   0.01267  Uiso   1.00
O84    O     0.47119   0.32972   0.13061   0.01267  Uiso   1.00
H85    H     0.94000   0.79560   0.12000   0.01267  Uiso   1.00
C86    C     0.96337   0.84239   0.10986   0.01267  Uiso   1.00
C87    C     0.94108   0.82541   0.09344   0.01267  Uiso   1.00
C88    C     0.93272   0.80253   0.10359   0.01267  Uiso   1.00
O89    O     0.97192   0.86250   0.09820   0.01267  Uiso   1.00
O90    O     0.97119   0.82972   0.13061   0.01267  Uiso   1.00
H91    H     0.94000   0.29560   0.62000   0.01267  Uiso   1.00
C92    C     0.96337   0.34239   0.60986   0.01267  Uiso   1.00
C93    C     0.94108   0.32541   0.59344   0.01267  Uiso   1.00
C94    C     0.93272   0.30253   0.60359   0.01267  Uiso   1.00
O95    O     0.97192   0.36250   0.59820   0.01267  Uiso   1.00
O96    O     0.97119   0.32972   0.63061   0.01267  Uiso   1.00
H97    H     0.38000   0.44000   0.20440   0.01267  Uiso   1.00
C98    C     0.39014   0.46337   0.15761   0.01267  Uiso   1.00
C99    C     0.40656   0.44108   0.17459   0.01267  Uiso   1.00
C100   C     0.39641   0.43272   0.19747   0.01267  Uiso   1.00
O101   O     0.40180   0.47192   0.13750   0.01267  Uiso   1.00
O102   O     0.36939   0.47119   0.17028   0.01267  Uiso   1.00
H103   H     0.38000   0.94000   0.70440   0.01267  Uiso   1.00
C104   C     0.39014   0.96337   0.65761   0.01267  Uiso   1.00
C105   C     0.40656   0.94108   0.67459   0.01267  Uiso   1.00
C106   C     0.39641   0.93272   0.69747   0.01267  Uiso   1.00
O107   O     0.40180   0.97192   0.63750   0.01267  Uiso   1.00
O108   O     0.36939   0.97119   0.67028   0.01267  Uiso   1.00
H109   H     0.88000   0.44000   0.70440   0.01267  Uiso   1.00
C110   C     0.89014   0.46337   0.65761   0.01267  Uiso   1.00
C111   C     0.90656   0.44108   0.67459   0.01267  Uiso   1.00
C112   C     0.89641   0.43272   0.69747   0.01267  Uiso   1.00
O113   O     0.90180   0.47192   0.63750   0.01267  Uiso   1.00
O114   O     0.86939   0.47119   0.67028   0.01267  Uiso   1.00
H115   H     0.88000   0.94000   0.20440   0.01267  Uiso   1.00
C116   C     0.89014   0.96337   0.15761   0.01267  Uiso   1.00
C117   C     0.90656   0.94108   0.17459   0.01267  Uiso   1.00
C118   C     0.89641   0.93272   0.19747   0.01267  Uiso   1.00
O119   O     0.90180   0.97192   0.13750   0.01267  Uiso   1.00
O120   O     0.86939   0.97119   0.17028   0.01267  Uiso   1.00
H121   H     0.38000   0.56000   0.79560   0.01267  Uiso   1.00
C122   C     0.39014   0.53663   0.84239   0.01267  Uiso   1.00
C123   C     0.40656   0.55892   0.82541   0.01267  Uiso   1.00
C124   C     0.39641   0.56728   0.80253   0.01267  Uiso   1.00
O125   O     0.40180   0.52808   0.86250   0.01267  Uiso   1.00
O126   O     0.36939   0.52881   0.82972   0.01267  Uiso   1.00
H127   H     0.38000   0.06000   0.29560   0.01267  Uiso   1.00
C128   C     0.39014   0.03663   0.34239   0.01267  Uiso   1.00
C129   C     0.40656   0.05892   0.32541   0.01267  Uiso   1.00
C130   C     0.39641   0.06728   0.30253   0.01267  Uiso   1.00
O131   O     0.40180   0.02808   0.36250   0.01267  Uiso   1.00
O132   O     0.36939   0.02881   0.32972   0.01267  Uiso   1.00
H133   H     0.88000   0.56000   0.29560   0.01267  Uiso   1.00
C134   C     0.89014   0.53663   0.34239   0.01267  Uiso   1.00
C135   C     0.90656   0.55892   0.32541   0.01267  Uiso   1.00
C136   C     0.89641   0.56728   0.30253   0.01267  Uiso   1.00
O137   O     0.90180   0.52808   0.36250   0.01267  Uiso   1.00
O138   O     0.86939   0.52881   0.32972   0.01267  Uiso   1.00
H139   H     0.88000   0.06000   0.79560   0.01267  Uiso   1.00
C140   C     0.89014   0.03663   0.84239   0.01267  Uiso   1.00
C141   C     0.90656   0.05892   0.82541   0.01267  Uiso   1.00
C142   C     0.89641   0.06728   0.80253   0.01267  Uiso   1.00
O143   O     0.90180   0.02808   0.86250   0.01267  Uiso   1.00
O144   O     0.86939   0.02881   0.82972   0.01267  Uiso   1.00
H145   H     0.62000   0.56000   0.20440   0.01267  Uiso   1.00
C146   C     0.60986   0.53663   0.15761   0.01267  Uiso   1.00
C147   C     0.59344   0.55892   0.17459   0.01267  Uiso   1.00
C148   C     0.60359   0.56728   0.19747   0.01267  Uiso   1.00
O149   O     0.59820   0.52808   0.13750   0.01267  Uiso   1.00
O150   O     0.63061   0.52881   0.17028   0.01267  Uiso   1.00
H151   H     0.62000   0.06000   0.70440   0.01267  Uiso   1.00
C152   C     0.60986   0.03663   0.65761   0.01267  Uiso   1.00
C153   C     0.59344   0.05892   0.67459   0.01267  Uiso   1.00
C154   C     0.60359   0.06728   0.69747   0.01267  Uiso   1.00
O155   O     0.59820   0.02808   0.63750   0.01267  Uiso   1.00
O156   O     0.63061   0.02881   0.67028   0.01267  Uiso   1.00
H157   H     0.12000   0.56000   0.70440   0.01267  Uiso   1.00
C158   C     0.10986   0.53663   0.65761   0.01267  Uiso   1.00
C159   C     0.09344   0.55892   0.67459   0.01267  Uiso   1.00
C160   C     0.10359   0.56728   0.69747   0.01267  Uiso   1.00
O161   O     0.09820   0.52808   0.63750   0.01267  Uiso   1.00
O162   O     0.13061   0.52881   0.67028   0.01267  Uiso   1.00
H163   H     0.12000   0.06000   0.20440   0.01267  Uiso   1.00
C164   C     0.10986   0.03663   0.15761   0.01267  Uiso   1.00
C165   C     0.09344   0.05892   0.17459   0.01267  Uiso   1.00
C166   C     0.10359   0.06728   0.19747   0.01267  Uiso   1.00
O167   O     0.09820   0.02808   0.13750   0.01267  Uiso   1.00
O168   O     0.13061   0.02881   0.17028   0.01267  Uiso   1.00
H169   H     0.62000   0.44000   0.79560   0.01267  Uiso   1.00
C170   C     0.60986   0.46337   0.84239   0.01267  Uiso   1.00
C171   C     0.59344   0.44108   0.82541   0.01267  Uiso   1.00
C172   C     0.60359   0.43272   0.80253   0.01267  Uiso   1.00
O173   O     0.59820   0.47192   0.86250   0.01267  Uiso   1.00
O174   O     0.63061   0.47119   0.82972   0.01267  Uiso   1.00
H175   H     0.62000   0.94000   0.29560   0.01267  Uiso   1.00
C176   C     0.60986   0.96337   0.34239   0.01267  Uiso   1.00
C177   C     0.59344   0.94108   0.32541   0.01267  Uiso   1.00
C178   C     0.60359   0.93272   0.30253   0.01267  Uiso   1.00
O179   O     0.59820   0.97192   0.36250   0.01267  Uiso   1.00
O180   O     0.63061   0.97119   0.32972   0.01267  Uiso   1.00
H181   H     0.12000   0.44000   0.29560   0.01267  Uiso   1.00
C182   C     0.10986   0.46337   0.34239   0.01267  Uiso   1.00
C183   C     0.09344   0.44108   0.32541   0.01267  Uiso   1.00
C184   C     0.10359   0.43272   0.30253   0.01267  Uiso   1.00
O185   O     0.09820   0.47192   0.36250   0.01267  Uiso   1.00
O186   O     0.13061   0.47119   0.32972   0.01267  Uiso   1.00
H187   H     0.12000   0.94000   0.79560   0.01267  Uiso   1.00
C188   C     0.10986   0.96337   0.84239   0.01267  Uiso   1.00
C189   C     0.09344   0.94108   0.82541   0.01267  Uiso   1.00
C190   C     0.10359   0.93272   0.80253   0.01267  Uiso   1.00
O191   O     0.09820   0.97192   0.86250   0.01267  Uiso   1.00
O192   O     0.13061   0.97119   0.82972   0.01267  Uiso   1.00
H193   H     0.20440   0.38000   0.44000   0.01267  Uiso   1.00
C194   C     0.15761   0.39014   0.46337   0.01267  Uiso   1.00
C195   C     0.17459   0.40656   0.44108   0.01267  Uiso   1.00
C196   C     0.19747   0.39641   0.43272   0.01267  Uiso   1.00
O197   O     0.13750   0.40180   0.47192   0.01267  Uiso   1.00
O198   O     0.17028   0.36939   0.47119   0.01267  Uiso   1.00
H199   H     0.20440   0.88000   0.94000   0.01267  Uiso   1.00
C200   C     0.15761   0.89014   0.96337   0.01267  Uiso   1.00
C201   C     0.17459   0.90656   0.94108   0.01267  Uiso   1.00
C202   C     0.19747   0.89641   0.93272   0.01267  Uiso   1.00
O203   O     0.13750   0.90180   0.97192   0.01267  Uiso   1.00
O204   O     0.17028   0.86939   0.97119   0.01267  Uiso   1.00
H205   H     0.70440   0.38000   0.94000   0.01267  Uiso   1.00
C206   C     0.65761   0.39014   0.96337   0.01267  Uiso   1.00
C207   C     0.67459   0.40656   0.94108   0.01267  Uiso   1.00
C208   C     0.69747   0.39641   0.93272   0.01267  Uiso   1.00
O209   O     0.63750   0.40180   0.97192   0.01267  Uiso   1.00
O210   O     0.67028   0.36939   0.97119   0.01267  Uiso   1.00
H211   H     0.70440   0.88000   0.44000   0.01267  Uiso   1.00
C212   C     0.65761   0.89014   0.46337   0.01267  Uiso   1.00
C213   C     0.67459   0.90656   0.44108   0.01267  Uiso   1.00
C214   C     0.69747   0.89641   0.43272   0.01267  Uiso   1.00
O215   O     0.63750   0.90180   0.47192   0.01267  Uiso   1.00
O216   O     0.67028   0.86939   0.47119   0.01267  Uiso   1.00
H217   H     0.79560   0.38000   0.56000   0.01267  Uiso   1.00
C218   C     0.84239   0.39014   0.53663   0.01267  Uiso   1.00
C219   C     0.82541   0.40656   0.55892   0.01267  Uiso   1.00
C220   C     0.80253   0.39641   0.56728   0.01267  Uiso   1.00
O221   O     0.86250   0.40180   0.52808   0.01267  Uiso   1.00
O222   O     0.82972   0.36939   0.52881   0.01267  Uiso   1.00
H223   H     0.79560   0.88000   0.06000   0.01267  Uiso   1.00
C224   C     0.84239   0.89014   0.03663   0.01267  Uiso   1.00
C225   C     0.82541   0.90656   0.05892   0.01267  Uiso   1.00
C226   C     0.80253   0.89641   0.06728   0.01267  Uiso   1.00
O227   O     0.86250   0.90180   0.02808   0.01267  Uiso   1.00
O228   O     0.82972   0.86939   0.02881   0.01267  Uiso   1.00
H229   H     0.29560   0.38000   0.06000   0.01267  Uiso   1.00
C230   C     0.34239   0.39014   0.03663   0.01267  Uiso   1.00
C231   C     0.32541   0.40656   0.05892   0.01267  Uiso   1.00
C232   C     0.30253   0.39641   0.06728   0.01267  Uiso   1.00
O233   O     0.36250   0.40180   0.02808   0.01267  Uiso   1.00
O234   O     0.32972   0.36939   0.02881   0.01267  Uiso   1.00
H235   H     0.29560   0.88000   0.56000   0.01267  Uiso   1.00
C236   C     0.34239   0.89014   0.53663   0.01267  Uiso   1.00
C237   C     0.32541   0.90656   0.55892   0.01267  Uiso   1.00
C238   C     0.30253   0.89641   0.56728   0.01267  Uiso   1.00
O239   O     0.36250   0.90180   0.52808   0.01267  Uiso   1.00
O240   O     0.32972   0.86939   0.52881   0.01267  Uiso   1.00
H241   H     0.20440   0.62000   0.56000   0.01267  Uiso   1.00
C242   C     0.15761   0.60986   0.53663   0.01267  Uiso   1.00
C243   C     0.17459   0.59344   0.55892   0.01267  Uiso   1.00
C244   C     0.19747   0.60359   0.56728   0.01267  Uiso   1.00
O245   O     0.13750   0.59820   0.52808   0.01267  Uiso   1.00
O246   O     0.17028   0.63061   0.52881   0.01267  Uiso   1.00
H247   H     0.20440   0.12000   0.06000   0.01267  Uiso   1.00
C248   C     0.15761   0.10986   0.03663   0.01267  Uiso   1.00
C249   C     0.17459   0.09344   0.05892   0.01267  Uiso   1.00
C250   C     0.19747   0.10359   0.06728   0.01267  Uiso   1.00
O251   O     0.13750   0.09820   0.02808   0.01267  Uiso   1.00
O252   O     0.17028   0.13061   0.02881   0.01267  Uiso   1.00
H253   H     0.70440   0.62000   0.06000   0.01267  Uiso   1.00
C254   C     0.65761   0.60986   0.03663   0.01267  Uiso   1.00
C255   C     0.67459   0.59344   0.05892   0.01267  Uiso   1.00
C256   C     0.69747   0.60359   0.06728   0.01267  Uiso   1.00
O257   O     0.63750   0.59820   0.02808   0.01267  Uiso   1.00
O258   O     0.67028   0.63061   0.02881   0.01267  Uiso   1.00
H259   H     0.70440   0.12000   0.56000   0.01267  Uiso   1.00
C260   C     0.65761   0.10986   0.53663   0.01267  Uiso   1.00
C261   C     0.67459   0.09344   0.55892   0.01267  Uiso   1.00
C262   C     0.69747   0.10359   0.56728   0.01267  Uiso   1.00
O263   O     0.63750   0.09820   0.52808   0.01267  Uiso   1.00
O264   O     0.67028   0.13061   0.52881   0.01267  Uiso   1.00
H265   H     0.79560   0.62000   0.44000   0.01267  Uiso   1.00
C266   C     0.84239   0.60986   0.46337   0.01267  Uiso   1.00
C267   C     0.82541   0.59344   0.44108   0.01267  Uiso   1.00
C268   C     0.80253   0.60359   0.43272   0.01267  Uiso   1.00
O269   O     0.86250   0.59820   0.47192   0.01267  Uiso   1.00
O270   O     0.82972   0.63061   0.47119   0.01267  Uiso   1.00
H271   H     0.79560   0.12000   0.94000   0.01267  Uiso   1.00
C272   C     0.84239   0.10986   0.96337   0.01267  Uiso   1.00
C273   C     0.82541   0.09344   0.94108   0.01267  Uiso   1.00
C274   C     0.80253   0.10359   0.93272   0.01267  Uiso   1.00
O275   O     0.86250   0.09820   0.97192   0.01267  Uiso   1.00
O276   O     0.82972   0.13061   0.97119   0.01267  Uiso   1.00
H277   H     0.29560   0.62000   0.94000   0.01267  Uiso   1.00
C278   C     0.34239   0.60986   0.96337   0.01267  Uiso   1.00
C279   C     0.32541   0.59344   0.94108   0.01267  Uiso   1.00
C280   C     0.30253   0.60359   0.93272   0.01267  Uiso   1.00
O281   O     0.36250   0.59820   0.97192   0.01267  Uiso   1.00
O282   O     0.32972   0.63061   0.97119   0.01267  Uiso   1.00
H283   H     0.29560   0.12000   0.44000   0.01267  Uiso   1.00
C284   C     0.34239   0.10986   0.46337   0.01267  Uiso   1.00
C285   C     0.32541   0.09344   0.44108   0.01267  Uiso   1.00
C286   C     0.30253   0.10359   0.43272   0.01267  Uiso   1.00
O287   O     0.36250   0.09820   0.47192   0.01267  Uiso   1.00
O288   O     0.32972   0.13061   0.47119   0.01267  Uiso   1.00
H289   H     0.20440   0.44000   0.62000   0.01267  Uiso   1.00
C290   C     0.15761   0.46337   0.60986   0.01267  Uiso   1.00
C291   C     0.17459   0.44108   0.59344   0.01267  Uiso   1.00
C292   C     0.19747   0.43272   0.60359   0.01267  Uiso   1.00
O293   O     0.13750   0.47192   0.59820   0.01267  Uiso   1.00
O294   O     0.17028   0.47119   0.63061   0.01267  Uiso   1.00
H295   H     0.20440   0.94000   0.12000   0.01267  Uiso   1.00
C296   C     0.15761   0.96337   0.10986   0.01267  Uiso   1.00
C297   C     0.17459   0.94108   0.09344   0.01267  Uiso   1.00
C298   C     0.19747   0.93272   0.10359   0.01267  Uiso   1.00
O299   O     0.13750   0.97192   0.09820   0.01267  Uiso   1.00
O300   O     0.17028   0.97119   0.13061   0.01267  Uiso   1.00
H301   H     0.70440   0.44000   0.12000   0.01267  Uiso   1.00
C302   C     0.65761   0.46337   0.10986   0.01267  Uiso   1.00
C303   C     0.67459   0.44108   0.09344   0.01267  Uiso   1.00
C304   C     0.69747   0.43272   0.10359   0.01267  Uiso   1.00
O305   O     0.63750   0.47192   0.09820   0.01267  Uiso   1.00
O306   O     0.67028   0.47119   0.13061   0.01267  Uiso   1.00
H307   H     0.70440   0.94000   0.62000   0.01267  Uiso   1.00
C308   C     0.65761   0.96337   0.60986   0.01267  Uiso   1.00
C309   C     0.67459   0.94108   0.59344   0.01267  Uiso   1.00
C310   C     0.69747   0.93272   0.60359   0.01267  Uiso   1.00
O311   O     0.63750   0.97192   0.59820   0.01267  Uiso   1.00
O312   O     0.67028   0.97119   0.63061   0.01267  Uiso   1.00
H313   H     0.79560   0.56000   0.62000   0.01267  Uiso   1.00
C314   C     0.84239   0.53663   0.60986   0.01267  Uiso   1.00
C315   C     0.82541   0.55892   0.59344   0.01267  Uiso   1.00
C316   C     0.80253   0.56728   0.60359   0.01267  Uiso   1.00
O317   O     0.86250   0.52808   0.59820   0.01267  Uiso   1.00
O318   O     0.82972   0.52881   0.63061   0.01267  Uiso   1.00
H319   H     0.79560   0.06000   0.12000   0.01267  Uiso   1.00
C320   C     0.84239   0.03663   0.10986   0.01267  Uiso   1.00
C321   C     0.82541   0.05892   0.09344   0.01267  Uiso   1.00
C322   C     0.80253   0.06728   0.10359   0.01267  Uiso   1.00
O323   O     0.86250   0.02808   0.09820   0.01267  Uiso   1.00
O324   O     0.82972   0.02881   0.13061   0.01267  Uiso   1.00
H325   H     0.29560   0.56000   0.12000   0.01267  Uiso   1.00
C326   C     0.34239   0.53663   0.10986   0.01267  Uiso   1.00
C327   C     0.32541   0.55892   0.09344   0.01267  Uiso   1.00
C328   C     0.30253   0.56728   0.10359   0.01267  Uiso   1.00
O329   O     0.36250   0.52808   0.09820   0.01267  Uiso   1.00
O330   O     0.32972   0.52881   0.13061   0.01267  Uiso   1.00
H331   H     0.29560   0.06000   0.62000   0.01267  Uiso   1.00
C332   C     0.34239   0.03663   0.60986   0.01267  Uiso   1.00
C333   C     0.32541   0.05892   0.59344   0.01267  Uiso   1.00
C334   C     0.30253   0.06728   0.60359   0.01267  Uiso   1.00
O335   O     0.36250   0.02808   0.59820   0.01267  Uiso   1.00
O336   O     0.32972   0.02881   0.63061   0.01267  Uiso   1.00
H337   H     0.20440   0.56000   0.38000   0.01267  Uiso   1.00
C338   C     0.15761   0.53663   0.39014   0.01267  Uiso   1.00
C339   C     0.17459   0.55892   0.40656   0.01267  Uiso   1.00
C340   C     0.19747   0.56728   0.39641   0.01267  Uiso   1.00
O341   O     0.13750   0.52808   0.40180   0.01267  Uiso   1.00
O342   O     0.17028   0.52881   0.36939   0.01267  Uiso   1.00
H343   H     0.20440   0.06000   0.88000   0.01267  Uiso   1.00
C344   C     0.15761   0.03663   0.89014   0.01267  Uiso   1.00
C345   C     0.17459   0.05892   0.90656   0.01267  Uiso   1.00
C346   C     0.19747   0.06728   0.89641   0.01267  Uiso   1.00
O347   O     0.13750   0.02808   0.90180   0.01267  Uiso   1.00
O348   O     0.17028   0.02881   0.86939   0.01267  Uiso   1.00
H349   H     0.70440   0.56000   0.88000   0.01267  Uiso   1.00
C350   C     0.65761   0.53663   0.89014   0.01267  Uiso   1.00
C351   C     0.67459   0.55892   0.90656   0.01267  Uiso   1.00
C352   C     0.69747   0.56728   0.89641   0.01267  Uiso   1.00
O353   O     0.63750   0.52808   0.90180   0.01267  Uiso   1.00
O354   O     0.67028   0.52881   0.86939   0.01267  Uiso   1.00
H355   H     0.70440   0.06000   0.38000   0.01267  Uiso   1.00
C356   C     0.65761   0.03663   0.39014   0.01267  Uiso   1.00
C357   C     0.67459   0.05892   0.40656   0.01267  Uiso   1.00
C358   C     0.69747   0.06728   0.39641   0.01267  Uiso   1.00
O359   O     0.63750   0.02808   0.40180   0.01267  Uiso   1.00
O360   O     0.67028   0.02881   0.36939   0.01267  Uiso   1.00
H361   H     0.79560   0.44000   0.38000   0.01267  Uiso   1.00
C362   C     0.84239   0.46337   0.39014   0.01267  Uiso   1.00
C363   C     0.82541   0.44108   0.40656   0.01267  Uiso   1.00
C364   C     0.80253   0.43272   0.39641   0.01267  Uiso   1.00
O365   O     0.86250   0.47192   0.40180   0.01267  Uiso   1.00
O366   O     0.82972   0.47119   0.36939   0.01267  Uiso   1.00
H367   H     0.79560   0.94000   0.88000   0.01267  Uiso   1.00
C368   C     0.84239   0.96337   0.89014   0.01267  Uiso   1.00
C369   C     0.82541   0.94108   0.90656   0.01267  Uiso   1.00
C370   C     0.80253   0.93272   0.89641   0.01267  Uiso   1.00
O371   O     0.86250   0.97192   0.90180   0.01267  Uiso   1.00
O372   O     0.82972   0.97119   0.86939   0.01267  Uiso   1.00
H373   H     0.29560   0.44000   0.88000   0.01267  Uiso   1.00
C374   C     0.34239   0.46337   0.89014   0.01267  Uiso   1.00
C375   C     0.32541   0.44108   0.90656   0.01267  Uiso   1.00
C376   C     0.30253   0.43272   0.89641   0.01267  Uiso   1.00
O377   O     0.36250   0.47192   0.90180   0.01267  Uiso   1.00
O378   O     0.32972   0.47119   0.86939   0.01267  Uiso   1.00
H379   H     0.29560   0.94000   0.38000   0.01267  Uiso   1.00
C380   C     0.34239   0.96337   0.39014   0.01267  Uiso   1.00
C381   C     0.32541   0.94108   0.40656   0.01267  Uiso   1.00
C382   C     0.30253   0.93272   0.39641   0.01267  Uiso   1.00
O383   O     0.36250   0.97192   0.40180   0.01267  Uiso   1.00
O384   O     0.32972   0.97119   0.36939   0.01267  Uiso   1.00
H385   H     0.44000   0.38000   0.79560   0.01267  Uiso   1.00
C386   C     0.46337   0.39014   0.84239   0.01267  Uiso   1.00
C387   C     0.44108   0.40656   0.82541   0.01267  Uiso   1.00
C388   C     0.43272   0.39641   0.80253   0.01267  Uiso   1.00
O389   O     0.47192   0.40180   0.86250   0.01267  Uiso   1.00
O390   O     0.47119   0.36939   0.82972   0.01267  Uiso   1.00
H391   H     0.44000   0.88000   0.29560   0.01267  Uiso   1.00
C392   C     0.46337   0.89014   0.34239   0.01267  Uiso   1.00
C393   C     0.44108   0.90656   0.32541   0.01267  Uiso   1.00
C394   C     0.43272   0.89641   0.30253   0.01267  Uiso   1.00
O395   O     0.47192   0.90180   0.36250   0.01267  Uiso   1.00
O396   O     0.47119   0.86939   0.32972   0.01267  Uiso   1.00
H397   H     0.94000   0.38000   0.29560   0.01267  Uiso   1.00
C398   C     0.96337   0.39014   0.34239   0.01267  Uiso   1.00
C399   C     0.94108   0.40656   0.32541   0.01267  Uiso   1.00
C400   C     0.93272   0.39641   0.30253   0.01267  Uiso   1.00
O401   O     0.97192   0.40180   0.36250   0.01267  Uiso   1.00
O402   O     0.97119   0.36939   0.32972   0.01267  Uiso   1.00
H403   H     0.94000   0.88000   0.79560   0.01267  Uiso   1.00
C404   C     0.96337   0.89014   0.84239   0.01267  Uiso   1.00
C405   C     0.94108   0.90656   0.82541   0.01267  Uiso   1.00
C406   C     0.93272   0.89641   0.80253   0.01267  Uiso   1.00
O407   O     0.97192   0.90180   0.86250   0.01267  Uiso   1.00
O408   O     0.97119   0.86939   0.82972   0.01267  Uiso   1.00
H409   H     0.56000   0.38000   0.20440   0.01267  Uiso   1.00
C410   C     0.53663   0.39014   0.15761   0.01267  Uiso   1.00
C411   C     0.55892   0.40656   0.17459   0.01267  Uiso   1.00
C412   C     0.56728   0.39641   0.19747   0.01267  Uiso   1.00
O413   O     0.52808   0.40180   0.13750   0.01267  Uiso   1.00
O414   O     0.52881   0.36939   0.17028   0.01267  Uiso   1.00
H415   H     0.56000   0.88000   0.70440   0.01267  Uiso   1.00
C416   C     0.53663   0.89014   0.65761   0.01267  Uiso   1.00
C417   C     0.55892   0.90656   0.67459   0.01267  Uiso   1.00
C418   C     0.56728   0.89641   0.69747   0.01267  Uiso   1.00
O419   O     0.52808   0.90180   0.63750   0.01267  Uiso   1.00
O420   O     0.52881   0.86939   0.67028   0.01267  Uiso   1.00
H421   H     0.06000   0.38000   0.70440   0.01267  Uiso   1.00
C422   C     0.03663   0.39014   0.65761   0.01267  Uiso   1.00
C423   C     0.05892   0.40656   0.67459   0.01267  Uiso   1.00
C424   C     0.06728   0.39641   0.69747   0.01267  Uiso   1.00
O425   O     0.02808   0.40180   0.63750   0.01267  Uiso   1.00
O426   O     0.02881   0.36939   0.67028   0.01267  Uiso   1.00
H427   H     0.06000   0.88000   0.20440   0.01267  Uiso   1.00
C428   C     0.03663   0.89014   0.15761   0.01267  Uiso   1.00
C429   C     0.05892   0.90656   0.17459   0.01267  Uiso   1.00
C430   C     0.06728   0.89641   0.19747   0.01267  Uiso   1.00
O431   O     0.02808   0.90180   0.13750   0.01267  Uiso   1.00
O432   O     0.02881   0.86939   0.17028   0.01267  Uiso   1.00
H433   H     0.56000   0.62000   0.79560   0.01267  Uiso   1.00
C434   C     0.53663   0.60986   0.84239   0.01267  Uiso   1.00
C435   C     0.55892   0.59344   0.82541   0.01267  Uiso   1.00
C436   C     0.56728   0.60359   0.80253   0.01267  Uiso   1.00
O437   O     0.52808   0.59820   0.86250   0.01267  Uiso   1.00
O438   O     0.52881   0.63061   0.82972   0.01267  Uiso   1.00
H439   H     0.56000   0.12000   0.29560   0.01267  Uiso   1.00
C440   C     0.53663   0.10986   0.34239   0.01267  Uiso   1.00
C441   C     0.55892   0.09344   0.32541   0.01267  Uiso   1.00
C442   C     0.56728   0.10359   0.30253   0.01267  Uiso   1.00
O443   O     0.52808   0.09820   0.36250   0.01267  Uiso   1.00
O444   O     0.52881   0.13061   0.32972   0.01267  Uiso   1.00
H445   H     0.06000   0.62000   0.29560   0.01267  Uiso   1.00
C446   C     0.03663   0.60986   0.34239   0.01267  Uiso   1.00
C447   C     0.05892   0.59344   0.32541   0.01267  Uiso   1.00
C448   C     0.06728   0.60359   0.30253   0.01267  Uiso   1.00
O449   O     0.02808   0.59820   0.36250   0.01267  Uiso   1.00
O450   O     0.02881   0.63061   0.32972   0.01267  Uiso   1.00
H451   H     0.06000   0.12000   0.79560   0.01267  Uiso   1.00
C452   C     0.03663   0.10986   0.84239   0.01267  Uiso   1.00
C453   C     0.05892   0.09344   0.82541   0.01267  Uiso   1.00
C454   C     0.06728   0.10359   0.80253   0.01267  Uiso   1.00
O455   O     0.02808   0.09820   0.86250   0.01267  Uiso   1.00
O456   O     0.02881   0.13061   0.82972   0.01267  Uiso   1.00
H457   H     0.44000   0.62000   0.20440   0.01267  Uiso   1.00
C458   C     0.46337   0.60986   0.15761   0.01267  Uiso   1.00
C459   C     0.44108   0.59344   0.17459   0.01267  Uiso   1.00
C460   C     0.43272   0.60359   0.19747   0.01267  Uiso   1.00
O461   O     0.47192   0.59820   0.13750   0.01267  Uiso   1.00
O462   O     0.47119   0.63061   0.17028   0.01267  Uiso   1.00
H463   H     0.44000   0.12000   0.70440   0.01267  Uiso   1.00
C464   C     0.46337   0.10986   0.65761   0.01267  Uiso   1.00
C465   C     0.44108   0.09344   0.67459   0.01267  Uiso   1.00
C466   C     0.43272   0.10359   0.69747   0.01267  Uiso   1.00
O467   O     0.47192   0.09820   0.63750   0.01267  Uiso   1.00
O468   O     0.47119   0.13061   0.67028   0.01267  Uiso   1.00
H469   H     0.94000   0.62000   0.70440   0.01267  Uiso   1.00
C470   C     0.96337   0.60986   0.65761   0.01267  Uiso   1.00
C471   C     0.94108   0.59344   0.67459   0.01267  Uiso   1.00
C472   C     0.93272   0.60359   0.69747   0.01267  Uiso   1.00
O473   O     0.97192   0.59820   0.63750   0.01267  Uiso   1.00
O474   O     0.97119   0.63061   0.67028   0.01267  Uiso   1.00
H475   H     0.94000   0.12000   0.20440   0.01267  Uiso   1.00
C476   C     0.96337   0.10986   0.15761   0.01267  Uiso   1.00
C477   C     0.94108   0.09344   0.17459   0.01267  Uiso   1.00
C478   C     0.93272   0.10359   0.19747   0.01267  Uiso   1.00
O479   O     0.97192   0.09820   0.13750   0.01267  Uiso   1.00
O480   O     0.97119   0.13061   0.17028   0.01267  Uiso   1.00
H481   H     0.38000   0.20440   0.56000   0.01267  Uiso   1.00
C482   C     0.39014   0.15761   0.53663   0.01267  Uiso   1.00
C483   C     0.40656   0.17459   0.55892   0.01267  Uiso   1.00
C484   C     0.39641   0.19747   0.56728   0.01267  Uiso   1.00
O485   O     0.40180   0.13750   0.52808   0.01267  Uiso   1.00
O486   O     0.36939   0.17028   0.52881   0.01267  Uiso   1.00
H487   H     0.38000   0.70440   0.06000   0.01267  Uiso   1.00
C488   C     0.39014   0.65761   0.03663   0.01267  Uiso   1.00
C489   C     0.40656   0.67459   0.05892   0.01267  Uiso   1.00
C490   C     0.39641   0.69747   0.06728   0.01267  Uiso   1.00
O491   O     0.40180   0.63750   0.02808   0.01267  Uiso   1.00
O492   O     0.36939   0.67028   0.02881   0.01267  Uiso   1.00
H493   H     0.88000   0.20440   0.06000   0.01267  Uiso   1.00
C494   C     0.89014   0.15761   0.03663   0.01267  Uiso   1.00
C495   C     0.90656   0.17459   0.05892   0.01267  Uiso   1.00
C496   C     0.89641   0.19747   0.06728   0.01267  Uiso   1.00
O497   O     0.90180   0.13750   0.02808   0.01267  Uiso   1.00
O498   O     0.86939   0.17028   0.02881   0.01267  Uiso   1.00
H499   H     0.88000   0.70440   0.56000   0.01267  Uiso   1.00
C500   C     0.89014   0.65761   0.53663   0.01267  Uiso   1.00
C501   C     0.90656   0.67459   0.55892   0.01267  Uiso   1.00
C502   C     0.89641   0.69747   0.56728   0.01267  Uiso   1.00
O503   O     0.90180   0.63750   0.52808   0.01267  Uiso   1.00
O504   O     0.86939   0.67028   0.52881   0.01267  Uiso   1.00
H505   H     0.38000   0.79560   0.44000   0.01267  Uiso   1.00
C506   C     0.39014   0.84239   0.46337   0.01267  Uiso   1.00
C507   C     0.40656   0.82541   0.44108   0.01267  Uiso   1.00
C508   C     0.39641   0.80253   0.43272   0.01267  Uiso   1.00
O509   O     0.40180   0.86250   0.47192   0.01267  Uiso   1.00
O510   O     0.36939   0.82972   0.47119   0.01267  Uiso   1.00
H511   H     0.38000   0.29560   0.94000   0.01267  Uiso   1.00
C512   C     0.39014   0.34239   0.96337   0.01267  Uiso   1.00
C513   C     0.40656   0.32541   0.94108   0.01267  Uiso   1.00
C514   C     0.39641   0.30253   0.93272   0.01267  Uiso   1.00
O515   O     0.40180   0.36250   0.97192   0.01267  Uiso   1.00
O516   O     0.36939   0.32972   0.97119   0.01267  Uiso   1.00
H517   H     0.88000   0.79560   0.94000   0.01267  Uiso   1.00
C518   C     0.89014   0.84239   0.96337   0.01267  Uiso   1.00
C519   C     0.90656   0.82541   0.94108   0.01267  Uiso   1.00
C520   C     0.89641   0.80253   0.93272   0.01267  Uiso   1.00
O521   O     0.90180   0.86250   0.97192   0.01267  Uiso   1.00
O522   O     0.86939   0.82972   0.97119   0.01267  Uiso   1.00
H523   H     0.88000   0.29560   0.44000   0.01267  Uiso   1.00
C524   C     0.89014   0.34239   0.46337   0.01267  Uiso   1.00
C525   C     0.90656   0.32541   0.44108   0.01267  Uiso   1.00
C526   C     0.89641   0.30253   0.43272   0.01267  Uiso   1.00
O527   O     0.90180   0.36250   0.47192   0.01267  Uiso   1.00
O528   O     0.86939   0.32972   0.47119   0.01267  Uiso   1.00
H529   H     0.62000   0.20440   0.44000   0.01267  Uiso   1.00
C530   C     0.60986   0.15761   0.46337   0.01267  Uiso   1.00
C531   C     0.59344   0.17459   0.44108   0.01267  Uiso   1.00
C532   C     0.60359   0.19747   0.43272   0.01267  Uiso   1.00
O533   O     0.59820   0.13750   0.47192   0.01267  Uiso   1.00
O534   O     0.63061   0.17028   0.47119   0.01267  Uiso   1.00
H535   H     0.62000   0.70440   0.94000   0.01267  Uiso   1.00
C536   C     0.60986   0.65761   0.96337   0.01267  Uiso   1.00
C537   C     0.59344   0.67459   0.94108   0.01267  Uiso   1.00
C538   C     0.60359   0.69747   0.93272   0.01267  Uiso   1.00
O539   O     0.59820   0.63750   0.97192   0.01267  Uiso   1.00
O540   O     0.63061   0.67028   0.97119   0.01267  Uiso   1.00
H541   H     0.12000   0.20440   0.94000   0.01267  Uiso   1.00
C542   C     0.10986   0.15761   0.96337   0.01267  Uiso   1.00
C543   C     0.09344   0.17459   0.94108   0.01267  Uiso   1.00
C544   C     0.10359   0.19747   0.93272   0.01267  Uiso   1.00
O545   O     0.09820   0.13750   0.97192   0.01267  Uiso   1.00
O546   O     0.13061   0.17028   0.97119   0.01267  Uiso   1.00
H547   H     0.12000   0.70440   0.44000   0.01267  Uiso   1.00
C548   C     0.10986   0.65761   0.46337   0.01267  Uiso   1.00
C549   C     0.09344   0.67459   0.44108   0.01267  Uiso   1.00
C550   C     0.10359   0.69747   0.43272   0.01267  Uiso   1.00
O551   O     0.09820   0.63750   0.47192   0.01267  Uiso   1.00
O552   O     0.13061   0.67028   0.47119   0.01267  Uiso   1.00
H553   H     0.62000   0.79560   0.56000   0.01267  Uiso   1.00
C554   C     0.60986   0.84239   0.53663   0.01267  Uiso   1.00
C555   C     0.59344   0.82541   0.55892   0.01267  Uiso   1.00
C556   C     0.60359   0.80253   0.56728   0.01267  Uiso   1.00
O557   O     0.59820   0.86250   0.52808   0.01267  Uiso   1.00
O558   O     0.63061   0.82972   0.52881   0.01267  Uiso   1.00
H559   H     0.62000   0.29560   0.06000   0.01267  Uiso   1.00
C560   C     0.60986   0.34239   0.03663   0.01267  Uiso   1.00
C561   C     0.59344   0.32541   0.05892   0.01267  Uiso   1.00
C562   C     0.60359   0.30253   0.06728   0.01267  Uiso   1.00
O563   O     0.59820   0.36250   0.02808   0.01267  Uiso   1.00
O564   O     0.63061   0.32972   0.02881   0.01267  Uiso   1.00
H565   H     0.12000   0.79560   0.06000   0.01267  Uiso   1.00
C566   C     0.10986   0.84239   0.03663   0.01267  Uiso   1.00
C567   C     0.09344   0.82541   0.05892   0.01267  Uiso   1.00
C568   C     0.10359   0.80253   0.06728   0.01267  Uiso   1.00
O569   O     0.09820   0.86250   0.02808   0.01267  Uiso   1.00
O570   O     0.13061   0.82972   0.02881   0.01267  Uiso   1.00
H571   H     0.12000   0.29560   0.56000   0.01267  Uiso   1.00
C572   C     0.10986   0.34239   0.53663   0.01267  Uiso   1.00
C573   C     0.09344   0.32541   0.55892   0.01267  Uiso   1.00
C574   C     0.10359   0.30253   0.56728   0.01267  Uiso   1.00
O575   O     0.09820   0.36250   0.52808   0.01267  Uiso   1.00
O576   O     0.13061   0.32972   0.52881   0.01267  Uiso   1.00
H577   H     0.56000   0.79560   0.62000   0.01267  Uiso   1.00
C578   C     0.53663   0.84239   0.60986   0.01267  Uiso   1.00
C579   C     0.55892   0.82541   0.59344   0.01267  Uiso   1.00
C580   C     0.56728   0.80253   0.60359   0.01267  Uiso   1.00
O581   O     0.52808   0.86250   0.59820   0.01267  Uiso   1.00
O582   O     0.52881   0.82972   0.63061   0.01267  Uiso   1.00
H583   H     0.56000   0.29560   0.12000   0.01267  Uiso   1.00
C584   C     0.53663   0.34239   0.10986   0.01267  Uiso   1.00
C585   C     0.55892   0.32541   0.09344   0.01267  Uiso   1.00
C586   C     0.56728   0.30253   0.10359   0.01267  Uiso   1.00
O587   O     0.52808   0.36250   0.09820   0.01267  Uiso   1.00
O588   O     0.52881   0.32972   0.13061   0.01267  Uiso   1.00
H589   H     0.06000   0.79560   0.12000   0.01267  Uiso   1.00
C590   C     0.03663   0.84239   0.10986   0.01267  Uiso   1.00
C591   C     0.05892   0.82541   0.09344   0.01267  Uiso   1.00
C592   C     0.06728   0.80253   0.10359   0.01267  Uiso   1.00
O593   O     0.02808   0.86250   0.09820   0.01267  Uiso   1.00
O594   O     0.02881   0.82972   0.13061   0.01267  Uiso   1.00
H595   H     0.06000   0.29560   0.62000   0.01267  Uiso   1.00
C596   C     0.03663   0.34239   0.60986   0.01267  Uiso   1.00
C597   C     0.05892   0.32541   0.59344   0.01267  Uiso   1.00
C598   C     0.06728   0.30253   0.60359   0.01267  Uiso   1.00
O599   O     0.02808   0.36250   0.59820   0.01267  Uiso   1.00
O600   O     0.02881   0.32972   0.63061   0.01267  Uiso   1.00
H601   H     0.44000   0.20440   0.62000   0.01267  Uiso   1.00
C602   C     0.46337   0.15761   0.60986   0.01267  Uiso   1.00
C603   C     0.44108   0.17459   0.59344   0.01267  Uiso   1.00
C604   C     0.43272   0.19747   0.60359   0.01267  Uiso   1.00
O605   O     0.47192   0.13750   0.59820   0.01267  Uiso   1.00
O606   O     0.47119   0.17028   0.63061   0.01267  Uiso   1.00
H607   H     0.44000   0.70440   0.12000   0.01267  Uiso   1.00
C608   C     0.46337   0.65761   0.10986   0.01267  Uiso   1.00
C609   C     0.44108   0.67459   0.09344   0.01267  Uiso   1.00
C610   C     0.43272   0.69747   0.10359   0.01267  Uiso   1.00
O611   O     0.47192   0.63750   0.09820   0.01267  Uiso   1.00
O612   O     0.47119   0.67028   0.13061   0.01267  Uiso   1.00
H613   H     0.94000   0.20440   0.12000   0.01267  Uiso   1.00
C614   C     0.96337   0.15761   0.10986   0.01267  Uiso   1.00
C615   C     0.94108   0.17459   0.09344   0.01267  Uiso   1.00
C616   C     0.93272   0.19747   0.10359   0.01267  Uiso   1.00
O617   O     0.97192   0.13750   0.09820   0.01267  Uiso   1.00
O618   O     0.97119   0.17028   0.13061   0.01267  Uiso   1.00
H619   H     0.94000   0.70440   0.62000   0.01267  Uiso   1.00
C620   C     0.96337   0.65761   0.60986   0.01267  Uiso   1.00
C621   C     0.94108   0.67459   0.59344   0.01267  Uiso   1.00
C622   C     0.93272   0.69747   0.60359   0.01267  Uiso   1.00
O623   O     0.97192   0.63750   0.59820   0.01267  Uiso   1.00
O624   O     0.97119   0.67028   0.63061   0.01267  Uiso   1.00
H625   H     0.44000   0.79560   0.38000   0.01267  Uiso   1.00
C626   C     0.46337   0.84239   0.39014   0.01267  Uiso   1.00
C627   C     0.44108   0.82541   0.40656   0.01267  Uiso   1.00
C628   C     0.43272   0.80253   0.39641   0.01267  Uiso   1.00
O629   O     0.47192   0.86250   0.40180   0.01267  Uiso   1.00
O630   O     0.47119   0.82972   0.36939   0.01267  Uiso   1.00
H631   H     0.44000   0.29560   0.88000   0.01267  Uiso   1.00
C632   C     0.46337   0.34239   0.89014   0.01267  Uiso   1.00
C633   C     0.44108   0.32541   0.90656   0.01267  Uiso   1.00
C634   C     0.43272   0.30253   0.89641   0.01267  Uiso   1.00
O635   O     0.47192   0.36250   0.90180   0.01267  Uiso   1.00
O636   O     0.47119   0.32972   0.86939   0.01267  Uiso   1.00
H637   H     0.94000   0.79560   0.88000   0.01267  Uiso   1.00
C638   C     0.96337   0.84239   0.89014   0.01267  Uiso   1.00
C639   C     0.94108   0.82541   0.90656   0.01267  Uiso   1.00
C640   C     0.93272   0.80253   0.89641   0.01267  Uiso   1.00
O641   O     0.97192   0.86250   0.90180   0.01267  Uiso   1.00
O642   O     0.97119   0.82972   0.86939   0.01267  Uiso   1.00
H643   H     0.94000   0.29560   0.38000   0.01267  Uiso   1.00
C644   C     0.96337   0.34239   0.39014   0.01267  Uiso   1.00
C645   C     0.94108   0.32541   0.40656   0.01267  Uiso   1.00
C646   C     0.93272   0.30253   0.39641   0.01267  Uiso   1.00
O647   O     0.97192   0.36250   0.40180   0.01267  Uiso   1.00
O648   O     0.97119   0.32972   0.36939   0.01267  Uiso   1.00
H649   H     0.56000   0.20440   0.38000   0.01267  Uiso   1.00
C650   C     0.53663   0.15761   0.39014   0.01267  Uiso   1.00
C651   C     0.55892   0.17459   0.40656   0.01267  Uiso   1.00
C652   C     0.56728   0.19747   0.39641   0.01267  Uiso   1.00
O653   O     0.52808   0.13750   0.40180   0.01267  Uiso   1.00
O654   O     0.52881   0.17028   0.36939   0.01267  Uiso   1.00
H655   H     0.56000   0.70440   0.88000   0.01267  Uiso   1.00
C656   C     0.53663   0.65761   0.89014   0.01267  Uiso   1.00
C657   C     0.55892   0.67459   0.90656   0.01267  Uiso   1.00
C658   C     0.56728   0.69747   0.89641   0.01267  Uiso   1.00
O659   O     0.52808   0.63750   0.90180   0.01267  Uiso   1.00
O660   O     0.52881   0.67028   0.86939   0.01267  Uiso   1.00
H661   H     0.06000   0.20440   0.88000   0.01267  Uiso   1.00
C662   C     0.03663   0.15761   0.89014   0.01267  Uiso   1.00
C663   C     0.05892   0.17459   0.90656   0.01267  Uiso   1.00
C664   C     0.06728   0.19747   0.89641   0.01267  Uiso   1.00
O665   O     0.02808   0.13750   0.90180   0.01267  Uiso   1.00
O666   O     0.02881   0.17028   0.86939   0.01267  Uiso   1.00
H667   H     0.06000   0.70440   0.38000   0.01267  Uiso   1.00
C668   C     0.03663   0.65761   0.39014   0.01267  Uiso   1.00
C669   C     0.05892   0.67459   0.40656   0.01267  Uiso   1.00
C670   C     0.06728   0.69747   0.39641   0.01267  Uiso   1.00
O671   O     0.02808   0.63750   0.40180   0.01267  Uiso   1.00
O672   O     0.02881   0.67028   0.36939   0.01267  Uiso   1.00
H673   H     0.62000   0.56000   0.79560   0.01267  Uiso   1.00
C674   C     0.60986   0.53663   0.84239   0.01267  Uiso   1.00
C675   C     0.59344   0.55892   0.82541   0.01267  Uiso   1.00
C676   C     0.60359   0.56728   0.80253   0.01267  Uiso   1.00
O677   O     0.59820   0.52808   0.86250   0.01267  Uiso   1.00
O678   O     0.63061   0.52881   0.82972   0.01267  Uiso   1.00
H679   H     0.62000   0.06000   0.29560   0.01267  Uiso   1.00
C680   C     0.60986   0.03663   0.34239   0.01267  Uiso   1.00
C681   C     0.59344   0.05892   0.32541   0.01267  Uiso   1.00
C682   C     0.60359   0.06728   0.30253   0.01267  Uiso   1.00
O683   O     0.59820   0.02808   0.36250   0.01267  Uiso   1.00
O684   O     0.63061   0.02881   0.32972   0.01267  Uiso   1.00
H685   H     0.12000   0.56000   0.29560   0.01267  Uiso   1.00
C686   C     0.10986   0.53663   0.34239   0.01267  Uiso   1.00
C687   C     0.09344   0.55892   0.32541   0.01267  Uiso   1.00
C688   C     0.10359   0.56728   0.30253   0.01267  Uiso   1.00
O689   O     0.09820   0.52808   0.36250   0.01267  Uiso   1.00
O690   O     0.13061   0.52881   0.32972   0.01267  Uiso   1.00
H691   H     0.12000   0.06000   0.79560   0.01267  Uiso   1.00
C692   C     0.10986   0.03663   0.84239   0.01267  Uiso   1.00
C693   C     0.09344   0.05892   0.82541   0.01267  Uiso   1.00
C694   C     0.10359   0.06728   0.80253   0.01267  Uiso   1.00
O695   O     0.09820   0.02808   0.86250   0.01267  Uiso   1.00
O696   O     0.13061   0.02881   0.82972   0.01267  Uiso   1.00
H697   H     0.62000   0.44000   0.20440   0.01267  Uiso   1.00
C698   C     0.60986   0.46337   0.15761   0.01267  Uiso   1.00
C699   C     0.59344   0.44108   0.17459   0.01267  Uiso   1.00
C700   C     0.60359   0.43272   0.19747   0.01267  Uiso   1.00
O701   O     0.59820   0.47192   0.13750   0.01267  Uiso   1.00
O702   O     0.63061   0.47119   0.17028   0.01267  Uiso   1.00
H703   H     0.62000   0.94000   0.70440   0.01267  Uiso   1.00
C704   C     0.60986   0.96337   0.65761   0.01267  Uiso   1.00
C705   C     0.59344   0.94108   0.67459   0.01267  Uiso   1.00
C706   C     0.60359   0.93272   0.69747   0.01267  Uiso   1.00
O707   O     0.59820   0.97192   0.63750   0.01267  Uiso   1.00
O708   O     0.63061   0.97119   0.67028   0.01267  Uiso   1.00
H709   H     0.12000   0.44000   0.70440   0.01267  Uiso   1.00
C710   C     0.10986   0.46337   0.65761   0.01267  Uiso   1.00
C711   C     0.09344   0.44108   0.67459   0.01267  Uiso   1.00
C712   C     0.10359   0.43272   0.69747   0.01267  Uiso   1.00
O713   O     0.09820   0.47192   0.63750   0.01267  Uiso   1.00
O714   O     0.13061   0.47119   0.67028   0.01267  Uiso   1.00
H715   H     0.12000   0.94000   0.20440   0.01267  Uiso   1.00
C716   C     0.10986   0.96337   0.15761   0.01267  Uiso   1.00
C717   C     0.09344   0.94108   0.17459   0.01267  Uiso   1.00
C718   C     0.10359   0.93272   0.19747   0.01267  Uiso   1.00
O719   O     0.09820   0.97192   0.13750   0.01267  Uiso   1.00
O720   O     0.13061   0.97119   0.17028   0.01267  Uiso   1.00
H721   H     0.38000   0.44000   0.79560   0.01267  Uiso   1.00
C722   C     0.39014   0.46337   0.84239   0.01267  Uiso   1.00
C723   C     0.40656   0.44108   0.82541   0.01267  Uiso   1.00
C724   C     0.39641   0.43272   0.80253   0.01267  Uiso   1.00
O725   O     0.40180   0.47192   0.86250   0.01267  Uiso   1.00
O726   O     0.36939   0.47119   0.82972   0.01267  Uiso   1.00
H727   H     0.38000   0.94000   0.29560   0.01267  Uiso   1.00
C728   C     0.39014   0.96337   0.34239   0.01267  Uiso   1.00
C729   C     0.40656   0.94108   0.32541   0.01267  Uiso   1.00
C730   C     0.39641   0.93272   0.30253   0.01267  Uiso   1.00
O731   O     0.40180   0.97192   0.36250   0.01267  Uiso   1.00
O732   O     0.36939   0.97119   0.32972   0.01267  Uiso   1.00
H733   H     0.88000   0.44000   0.29560   0.01267  Uiso   1.00
C734   C     0.89014   0.46337   0.34239   0.01267  Uiso   1.00
C735   C     0.90656   0.44108   0.32541   0.01267  Uiso   1.00
C736   C     0.89641   0.43272   0.30253   0.01267  Uiso   1.00
O737   O     0.90180   0.47192   0.36250   0.01267  Uiso   1.00
O738   O     0.86939   0.47119   0.32972   0.01267  Uiso   1.00
H739   H     0.88000   0.94000   0.79560   0.01267  Uiso   1.00
C740   C     0.89014   0.96337   0.84239   0.01267  Uiso   1.00
C741   C     0.90656   0.94108   0.82541   0.01267  Uiso   1.00
C742   C     0.89641   0.93272   0.80253   0.01267  Uiso   1.00
O743   O     0.90180   0.97192   0.86250   0.01267  Uiso   1.00
O744   O     0.86939   0.97119   0.82972   0.01267  Uiso   1.00
H745   H     0.38000   0.56000   0.20440   0.01267  Uiso   1.00
C746   C     0.39014   0.53663   0.15761   0.01267  Uiso   1.00
C747   C     0.40656   0.55892   0.17459   0.01267  Uiso   1.00
C748   C     0.39641   0.56728   0.19747   0.01267  Uiso   1.00
O749   O     0.40180   0.52808   0.13750   0.01267  Uiso   1.00
O750   O     0.36939   0.52881   0.17028   0.01267  Uiso   1.00
H751   H     0.38000   0.06000   0.70440   0.01267  Uiso   1.00
C752   C     0.39014   0.03663   0.65761   0.01267  Uiso   1.00
C753   C     0.40656   0.05892   0.67459   0.01267  Uiso   1.00
C754   C     0.39641   0.06728   0.69747   0.01267  Uiso   1.00
O755   O     0.40180   0.02808   0.63750   0.01267  Uiso   1.00
O756   O     0.36939   0.02881   0.67028   0.01267  Uiso   1.00
H757   H     0.88000   0.56000   0.70440   0.01267  Uiso   1.00
C758   C     0.89014   0.53663   0.65761   0.01267  Uiso   1.00
C759   C     0.90656   0.55892   0.67459   0.01267  Uiso   1.00
C760   C     0.89641   0.56728   0.69747   0.01267  Uiso   1.00
O761   O     0.90180   0.52808   0.63750   0.01267  Uiso   1.00
O762   O     0.86939   0.52881   0.67028   0.01267  Uiso   1.00
H763   H     0.88000   0.06000   0.20440   0.01267  Uiso   1.00
C764   C     0.89014   0.03663   0.15761   0.01267  Uiso   1.00
C765   C     0.90656   0.05892   0.17459   0.01267  Uiso   1.00
C766   C     0.89641   0.06728   0.19747   0.01267  Uiso   1.00
O767   O     0.90180   0.02808   0.13750   0.01267  Uiso   1.00
O768   O     0.86939   0.02881   0.17028   0.01267  Uiso   1.00
H769   H     0.79560   0.62000   0.56000   0.01267  Uiso   1.00
C770   C     0.84239   0.60986   0.53663   0.01267  Uiso   1.00
C771   C     0.82541   0.59344   0.55892   0.01267  Uiso   1.00
C772   C     0.80253   0.60359   0.56728   0.01267  Uiso   1.00
O773   O     0.86250   0.59820   0.52808   0.01267  Uiso   1.00
O774   O     0.82972   0.63061   0.52881   0.01267  Uiso   1.00
H775   H     0.79560   0.12000   0.06000   0.01267  Uiso   1.00
C776   C     0.84239   0.10986   0.03663   0.01267  Uiso   1.00
C777   C     0.82541   0.09344   0.05892   0.01267  Uiso   1.00
C778   C     0.80253   0.10359   0.06728   0.01267  Uiso   1.00
O779   O     0.86250   0.09820   0.02808   0.01267  Uiso   1.00
O780   O     0.82972   0.13061   0.02881   0.01267  Uiso   1.00
H781   H     0.29560   0.62000   0.06000   0.01267  Uiso   1.00
C782   C     0.34239   0.60986   0.03663   0.01267  Uiso   1.00
C783   C     0.32541   0.59344   0.05892   0.01267  Uiso   1.00
C784   C     0.30253   0.60359   0.06728   0.01267  Uiso   1.00
O785   O     0.36250   0.59820   0.02808   0.01267  Uiso   1.00
O786   O     0.32972   0.63061   0.02881   0.01267  Uiso   1.00
H787   H     0.29560   0.12000   0.56000   0.01267  Uiso   1.00
C788   C     0.34239   0.10986   0.53663   0.01267  Uiso   1.00
C789   C     0.32541   0.09344   0.55892   0.01267  Uiso   1.00
C790   C     0.30253   0.10359   0.56728   0.01267  Uiso   1.00
O791   O     0.36250   0.09820   0.52808   0.01267  Uiso   1.00
O792   O     0.32972   0.13061   0.52881   0.01267  Uiso   1.00
H793   H     0.20440   0.62000   0.44000   0.01267  Uiso   1.00
C794   C     0.15761   0.60986   0.46337   0.01267  Uiso   1.00
C795   C     0.17459   0.59344   0.44108   0.01267  Uiso   1.00
C796   C     0.19747   0.60359   0.43272   0.01267  Uiso   1.00
O797   O     0.13750   0.59820   0.47192   0.01267  Uiso   1.00
O798   O     0.17028   0.63061   0.47119   0.01267  Uiso   1.00
H799   H     0.20440   0.12000   0.94000   0.01267  Uiso   1.00
C800   C     0.15761   0.10986   0.96337   0.01267  Uiso   1.00
C801   C     0.17459   0.09344   0.94108   0.01267  Uiso   1.00
C802   C     0.19747   0.10359   0.93272   0.01267  Uiso   1.00
O803   O     0.13750   0.09820   0.97192   0.01267  Uiso   1.00
O804   O     0.17028   0.13061   0.97119   0.01267  Uiso   1.00
H805   H     0.70440   0.62000   0.94000   0.01267  Uiso   1.00
C806   C     0.65761   0.60986   0.96337   0.01267  Uiso   1.00
C807   C     0.67459   0.59344   0.94108   0.01267  Uiso   1.00
C808   C     0.69747   0.60359   0.93272   0.01267  Uiso   1.00
O809   O     0.63750   0.59820   0.97192   0.01267  Uiso   1.00
O810   O     0.67028   0.63061   0.97119   0.01267  Uiso   1.00
H811   H     0.70440   0.12000   0.44000   0.01267  Uiso   1.00
C812   C     0.65761   0.10986   0.46337   0.01267  Uiso   1.00
C813   C     0.67459   0.09344   0.44108   0.01267  Uiso   1.00
C814   C     0.69747   0.10359   0.43272   0.01267  Uiso   1.00
O815   O     0.63750   0.09820   0.47192   0.01267  Uiso   1.00
O816   O     0.67028   0.13061   0.47119   0.01267  Uiso   1.00
H817   H     0.79560   0.38000   0.44000   0.01267  Uiso   1.00
C818   C     0.84239   0.39014   0.46337   0.01267  Uiso   1.00
C819   C     0.82541   0.40656   0.44108   0.01267  Uiso   1.00
C820   C     0.80253   0.39641   0.43272   0.01267  Uiso   1.00
O821   O     0.86250   0.40180   0.47192   0.01267  Uiso   1.00
O822   O     0.82972   0.36939   0.47119   0.01267  Uiso   1.00
H823   H     0.79560   0.88000   0.94000   0.01267  Uiso   1.00
C824   C     0.84239   0.89014   0.96337   0.01267  Uiso   1.00
C825   C     0.82541   0.90656   0.94108   0.01267  Uiso   1.00
C826   C     0.80253   0.89641   0.93272   0.01267  Uiso   1.00
O827   O     0.86250   0.90180   0.97192   0.01267  Uiso   1.00
O828   O     0.82972   0.86939   0.97119   0.01267  Uiso   1.00
H829   H     0.29560   0.38000   0.94000   0.01267  Uiso   1.00
C830   C     0.34239   0.39014   0.96337   0.01267  Uiso   1.00
C831   C     0.32541   0.40656   0.94108   0.01267  Uiso   1.00
C832   C     0.30253   0.39641   0.93272   0.01267  Uiso   1.00
O833   O     0.36250   0.40180   0.97192   0.01267  Uiso   1.00
O834   O     0.32972   0.36939   0.97119   0.01267  Uiso   1.00
H835   H     0.29560   0.88000   0.44000   0.01267  Uiso   1.00
C836   C     0.34239   0.89014   0.46337   0.01267  Uiso   1.00
C837   C     0.32541   0.90656   0.44108   0.01267  Uiso   1.00
C838   C     0.30253   0.89641   0.43272   0.01267  Uiso   1.00
O839   O     0.36250   0.90180   0.47192   0.01267  Uiso   1.00
O840   O     0.32972   0.86939   0.47119   0.01267  Uiso   1.00
H841   H     0.20440   0.38000   0.56000   0.01267  Uiso   1.00
C842   C     0.15761   0.39014   0.53663   0.01267  Uiso   1.00
C843   C     0.17459   0.40656   0.55892   0.01267  Uiso   1.00
C844   C     0.19747   0.39641   0.56728   0.01267  Uiso   1.00
O845   O     0.13750   0.40180   0.52808   0.01267  Uiso   1.00
O846   O     0.17028   0.36939   0.52881   0.01267  Uiso   1.00
H847   H     0.20440   0.88000   0.06000   0.01267  Uiso   1.00
C848   C     0.15761   0.89014   0.03663   0.01267  Uiso   1.00
C849   C     0.17459   0.90656   0.05892   0.01267  Uiso   1.00
C850   C     0.19747   0.89641   0.06728   0.01267  Uiso   1.00
O851   O     0.13750   0.90180   0.02808   0.01267  Uiso   1.00
O852   O     0.17028   0.86939   0.02881   0.01267  Uiso   1.00
H853   H     0.70440   0.38000   0.06000   0.01267  Uiso   1.00
C854   C     0.65761   0.39014   0.03663   0.01267  Uiso   1.00
C855   C     0.67459   0.40656   0.05892   0.01267  Uiso   1.00
C856   C     0.69747   0.39641   0.06728   0.01267  Uiso   1.00
O857   O     0.63750   0.40180   0.02808   0.01267  Uiso   1.00
O858   O     0.67028   0.36939   0.02881   0.01267  Uiso   1.00
H859   H     0.70440   0.88000   0.56000   0.01267  Uiso   1.00
C860   C     0.65761   0.89014   0.53663   0.01267  Uiso   1.00
C861   C     0.67459   0.90656   0.55892   0.01267  Uiso   1.00
C862   C     0.69747   0.89641   0.56728   0.01267  Uiso   1.00
O863   O     0.63750   0.90180   0.52808   0.01267  Uiso   1.00
O864   O     0.67028   0.86939   0.52881   0.01267  Uiso   1.00
H865   H     0.79560   0.56000   0.38000   0.01267  Uiso   1.00
C866   C     0.84239   0.53663   0.39014   0.01267  Uiso   1.00
C867   C     0.82541   0.55892   0.40656   0.01267  Uiso   1.00
C868   C     0.80253   0.56728   0.39641   0.01267  Uiso   1.00
O869   O     0.86250   0.52808   0.40180   0.01267  Uiso   1.00
O870   O     0.82972   0.52881   0.36939   0.01267  Uiso   1.00
H871   H     0.79560   0.06000   0.88000   0.01267  Uiso   1.00
C872   C     0.84239   0.03663   0.89014   0.01267  Uiso   1.00
C873   C     0.82541   0.05892   0.90656   0.01267  Uiso   1.00
C874   C     0.80253   0.06728   0.89641   0.01267  Uiso   1.00
O875   O     0.86250   0.02808   0.90180   0.01267  Uiso   1.00
O876   O     0.82972   0.02881   0.86939   0.01267  Uiso   1.00
H877   H     0.29560   0.56000   0.88000   0.01267  Uiso   1.00
C878   C     0.34239   0.53663   0.89014   0.01267  Uiso   1.00
C879   C     0.32541   0.55892   0.90656   0.01267  Uiso   1.00
C880   C     0.30253   0.56728   0.89641   0.01267  Uiso   1.00
O881   O     0.36250   0.52808   0.90180   0.01267  Uiso   1.00
O882   O     0.32972   0.52881   0.86939   0.01267  Uiso   1.00
H883   H     0.29560   0.06000   0.38000   0.01267  Uiso   1.00
C884   C     0.34239   0.03663   0.39014   0.01267  Uiso   1.00
C885   C     0.32541   0.05892   0.40656   0.01267  Uiso   1.00
C886   C     0.30253   0.06728   0.39641   0.01267  Uiso   1.00
O887   O     0.36250   0.02808   0.40180   0.01267  Uiso   1.00
O888   O     0.32972   0.02881   0.36939   0.01267  Uiso   1.00
H889   H     0.20440   0.44000   0.38000   0.01267  Uiso   1.00
C890   C     0.15761   0.46337   0.39014   0.01267  Uiso   1.00
C891   C     0.17459   0.44108   0.40656   0.01267  Uiso   1.00
C892   C     0.19747   0.43272   0.39641   0.01267  Uiso   1.00
O893   O     0.13750   0.47192   0.40180   0.01267  Uiso   1.00
O894   O     0.17028   0.47119   0.36939   0.01267  Uiso   1.00
H895   H     0.20440   0.94000   0.88000   0.01267  Uiso   1.00
C896   C     0.15761   0.96337   0.89014   0.01267  Uiso   1.00
C897   C     0.17459   0.94108   0.90656   0.01267  Uiso   1.00
C898   C     0.19747   0.93272   0.89641   0.01267  Uiso   1.00
O899   O     0.13750   0.97192   0.90180   0.01267  Uiso   1.00
O900   O     0.17028   0.97119   0.86939   0.01267  Uiso   1.00
H901   H     0.70440   0.44000   0.88000   0.01267  Uiso   1.00
C902   C     0.65761   0.46337   0.89014   0.01267  Uiso   1.00
C903   C     0.67459   0.44108   0.90656   0.01267  Uiso   1.00
C904   C     0.69747   0.43272   0.89641   0.01267  Uiso   1.00
O905   O     0.63750   0.47192   0.90180   0.01267  Uiso   1.00
O906   O     0.67028   0.47119   0.86939   0.01267  Uiso   1.00
H907   H     0.70440   0.94000   0.38000   0.01267  Uiso   1.00
C908   C     0.65761   0.96337   0.39014   0.01267  Uiso   1.00
C909   C     0.67459   0.94108   0.40656   0.01267  Uiso   1.00
C910   C     0.69747   0.93272   0.39641   0.01267  Uiso   1.00
O911   O     0.63750   0.97192   0.40180   0.01267  Uiso   1.00
O912   O     0.67028   0.97119   0.36939   0.01267  Uiso   1.00
H913   H     0.79560   0.44000   0.62000   0.01267  Uiso   1.00
C914   C     0.84239   0.46337   0.60986   0.01267  Uiso   1.00
C915   C     0.82541   0.44108   0.59344   0.01267  Uiso   1.00
C916   C     0.80253   0.43272   0.60359   0.01267  Uiso   1.00
O917   O     0.86250   0.47192   0.59820   0.01267  Uiso   1.00
O918   O     0.82972   0.47119   0.63061   0.01267  Uiso   1.00
H919   H     0.79560   0.94000   0.12000   0.01267  Uiso   1.00
C920   C     0.84239   0.96337   0.10986   0.01267  Uiso   1.00
C921   C     0.82541   0.94108   0.09344   0.01267  Uiso   1.00
C922   C     0.80253   0.93272   0.10359   0.01267  Uiso   1.00
O923   O     0.86250   0.97192   0.09820   0.01267  Uiso   1.00
O924   O     0.82972   0.97119   0.13061   0.01267  Uiso   1.00
H925   H     0.29560   0.44000   0.12000   0.01267  Uiso   1.00
C926   C     0.34239   0.46337   0.10986   0.01267  Uiso   1.00
C927   C     0.32541   0.44108   0.09344   0.01267  Uiso   1.00
C928   C     0.30253   0.43272   0.10359   0.01267  Uiso   1.00
O929   O     0.36250   0.47192   0.09820   0.01267  Uiso   1.00
O930   O     0.32972   0.47119   0.13061   0.01267  Uiso   1.00
H931   H     0.29560   0.94000   0.62000   0.01267  Uiso   1.00
C932   C     0.34239   0.96337   0.60986   0.01267  Uiso   1.00
C933   C     0.32541   0.94108   0.59344   0.01267  Uiso   1.00
C934   C     0.30253   0.93272   0.60359   0.01267  Uiso   1.00
O935   O     0.36250   0.97192   0.59820   0.01267  Uiso   1.00
O936   O     0.32972   0.97119   0.63061   0.01267  Uiso   1.00
H937   H     0.20440   0.56000   0.62000   0.01267  Uiso   1.00
C938   C     0.15761   0.53663   0.60986   0.01267  Uiso   1.00
C939   C     0.17459   0.55892   0.59344   0.01267  Uiso   1.00
C940   C     0.19747   0.56728   0.60359   0.01267  Uiso   1.00
O941   O     0.13750   0.52808   0.59820   0.01267  Uiso   1.00
O942   O     0.17028   0.52881   0.63061   0.01267  Uiso   1.00
H943   H     0.20440   0.06000   0.12000   0.01267  Uiso   1.00
C944   C     0.15761   0.03663   0.10986   0.01267  Uiso   1.00
C945   C     0.17459   0.05892   0.09344   0.01267  Uiso   1.00
C946   C     0.19747   0.06728   0.10359   0.01267  Uiso   1.00
O947   O     0.13750   0.02808   0.09820   0.01267  Uiso   1.00
O948   O     0.17028   0.02881   0.13061   0.01267  Uiso   1.00
H949   H     0.70440   0.56000   0.12000   0.01267  Uiso   1.00
C950   C     0.65761   0.53663   0.10986   0.01267  Uiso   1.00
C951   C     0.67459   0.55892   0.09344   0.01267  Uiso   1.00
C952   C     0.69747   0.56728   0.10359   0.01267  Uiso   1.00
O953   O     0.63750   0.52808   0.09820   0.01267  Uiso   1.00
O954   O     0.67028   0.52881   0.13061   0.01267  Uiso   1.00
H955   H     0.70440   0.06000   0.62000   0.01267  Uiso   1.00
C956   C     0.65761   0.03663   0.60986   0.01267  Uiso   1.00
C957   C     0.67459   0.05892   0.59344   0.01267  Uiso   1.00
C958   C     0.69747   0.06728   0.60359   0.01267  Uiso   1.00
O959   O     0.63750   0.02808   0.59820   0.01267  Uiso   1.00
O960   O     0.67028   0.02881   0.63061   0.01267  Uiso   1.00
H961   H     0.56000   0.62000   0.20440   0.01267  Uiso   1.00
C962   C     0.53663   0.60986   0.15761   0.01267  Uiso   1.00
C963   C     0.55892   0.59344   0.17459   0.01267  Uiso   1.00
C964   C     0.56728   0.60359   0.19747   0.01267  Uiso   1.00
O965   O     0.52808   0.59820   0.13750   0.01267  Uiso   1.00
O966   O     0.52881   0.63061   0.17028   0.01267  Uiso   1.00
H967   H     0.56000   0.12000   0.70440   0.01267  Uiso   1.00
C968   C     0.53663   0.10986   0.65761   0.01267  Uiso   1.00
C969   C     0.55892   0.09344   0.67459   0.01267  Uiso   1.00
C970   C     0.56728   0.10359   0.69747   0.01267  Uiso   1.00
O971   O     0.52808   0.09820   0.63750   0.01267  Uiso   1.00
O972   O     0.52881   0.13061   0.67028   0.01267  Uiso   1.00
H973   H     0.06000   0.62000   0.70440   0.01267  Uiso   1.00
C974   C     0.03663   0.60986   0.65761   0.01267  Uiso   1.00
C975   C     0.05892   0.59344   0.67459   0.01267  Uiso   1.00
C976   C     0.06728   0.60359   0.69747   0.01267  Uiso   1.00
O977   O     0.02808   0.59820   0.63750   0.01267  Uiso   1.00
O978   O     0.02881   0.63061   0.67028   0.01267  Uiso   1.00
H979   H     0.06000   0.12000   0.20440   0.01267  Uiso   1.00
C980   C     0.03663   0.10986   0.15761   0.01267  Uiso   1.00
C981   C     0.05892   0.09344   0.17459   0.01267  Uiso   1.00
C982   C     0.06728   0.10359   0.19747   0.01267  Uiso   1.00
O983   O     0.02808   0.09820   0.13750   0.01267  Uiso   1.00
O984   O     0.02881   0.13061   0.17028   0.01267  Uiso   1.00
H985   H     0.44000   0.62000   0.79560   0.01267  Uiso   1.00
C986   C     0.46337   0.60986   0.84239   0.01267  Uiso   1.00
C987   C     0.44108   0.59344   0.82541   0.01267  Uiso   1.00
C988   C     0.43272   0.60359   0.80253   0.01267  Uiso   1.00
O989   O     0.47192   0.59820   0.86250   0.01267  Uiso   1.00
O990   O     0.47119   0.63061   0.82972   0.01267  Uiso   1.00
H991   H     0.44000   0.12000   0.29560   0.01267  Uiso   1.00
C992   C     0.46337   0.10986   0.34239   0.01267  Uiso   1.00
C993   C     0.44108   0.09344   0.32541   0.01267  Uiso   1.00
C994   C     0.43272   0.10359   0.30253   0.01267  Uiso   1.00
O995   O     0.47192   0.09820   0.36250   0.01267  Uiso   1.00
O996   O     0.47119   0.13061   0.32972   0.01267  Uiso   1.00
H997   H     0.94000   0.62000   0.29560   0.01267  Uiso   1.00
C998   C     0.96337   0.60986   0.34239   0.01267  Uiso   1.00
C999   C     0.94108   0.59344   0.32541   0.01267  Uiso   1.00
C1000  C     0.93272   0.60359   0.30253   0.01267  Uiso   1.00
O1001  O     0.97192   0.59820   0.36250   0.01267  Uiso   1.00
O1002  O     0.97119   0.63061   0.32972   0.01267  Uiso   1.00
H1003  H     0.94000   0.12000   0.79560   0.01267  Uiso   1.00
C1004  C     0.96337   0.10986   0.84239   0.01267  Uiso   1.00
C1005  C     0.94108   0.09344   0.82541   0.01267  Uiso   1.00
C1006  C     0.93272   0.10359   0.80253   0.01267  Uiso   1.00
O1007  O     0.97192   0.09820   0.86250   0.01267  Uiso   1.00
O1008  O     0.97119   0.13061   0.82972   0.01267  Uiso   1.00
H1009  H     0.44000   0.38000   0.20440   0.01267  Uiso   1.00
C1010  C     0.46337   0.39014   0.15761   0.01267  Uiso   1.00
C1011  C     0.44108   0.40656   0.17459   0.01267  Uiso   1.00
C1012  C     0.43272   0.39641   0.19747   0.01267  Uiso   1.00
O1013  O     0.47192   0.40180   0.13750   0.01267  Uiso   1.00
O1014  O     0.47119   0.36939   0.17028   0.01267  Uiso   1.00
H1015  H     0.44000   0.88000   0.70440   0.01267  Uiso   1.00
C1016  C     0.46337   0.89014   0.65761   0.01267  Uiso   1.00
C1017  C     0.44108   0.90656   0.67459   0.01267  Uiso   1.00
C1018  C     0.43272   0.89641   0.69747   0.01267  Uiso   1.00
O1019  O     0.47192   0.90180   0.63750   0.01267  Uiso   1.00
O1020  O     0.47119   0.86939   0.67028   0.01267  Uiso   1.00
H1021  H     0.94000   0.38000   0.70440   0.01267  Uiso   1.00
C1022  C     0.96337   0.39014   0.65761   0.01267  Uiso   1.00
C1023  C     0.94108   0.40656   0.67459   0.01267  Uiso   1.00
C1024  C     0.93272   0.39641   0.69747   0.01267  Uiso   1.00
O1025  O     0.97192   0.40180   0.63750   0.01267  Uiso   1.00
O1026  O     0.97119   0.36939   0.67028   0.01267  Uiso   1.00
H1027  H     0.94000   0.88000   0.20440   0.01267  Uiso   1.00
C1028  C     0.96337   0.89014   0.15761   0.01267  Uiso   1.00
C1029  C     0.94108   0.90656   0.17459   0.01267  Uiso   1.00
C1030  C     0.93272   0.89641   0.19747   0.01267  Uiso   1.00
O1031  O     0.97192   0.90180   0.13750   0.01267  Uiso   1.00
O1032  O     0.97119   0.86939   0.17028   0.01267  Uiso   1.00
H1033  H     0.56000   0.38000   0.79560   0.01267  Uiso   1.00
C1034  C     0.53663   0.39014   0.84239   0.01267  Uiso   1.00
C1035  C     0.55892   0.40656   0.82541   0.01267  Uiso   1.00
C1036  C     0.56728   0.39641   0.80253   0.01267  Uiso   1.00
O1037  O     0.52808   0.40180   0.86250   0.01267  Uiso   1.00
O1038  O     0.52881   0.36939   0.82972   0.01267  Uiso   1.00
H1039  H     0.56000   0.88000   0.29560   0.01267  Uiso   1.00
C1040  C     0.53663   0.89014   0.34239   0.01267  Uiso   1.00
C1041  C     0.55892   0.90656   0.32541   0.01267  Uiso   1.00
C1042  C     0.56728   0.89641   0.30253   0.01267  Uiso   1.00
O1043  O     0.52808   0.90180   0.36250   0.01267  Uiso   1.00
O1044  O     0.52881   0.86939   0.32972   0.01267  Uiso   1.00
H1045  H     0.06000   0.38000   0.29560   0.01267  Uiso   1.00
C1046  C     0.03663   0.39014   0.34239   0.01267  Uiso   1.00
C1047  C     0.05892   0.40656   0.32541   0.01267  Uiso   1.00
C1048  C     0.06728   0.39641   0.30253   0.01267  Uiso   1.00
O1049  O     0.02808   0.40180   0.36250   0.01267  Uiso   1.00
O1050  O     0.02881   0.36939   0.32972   0.01267  Uiso   1.00
H1051  H     0.06000   0.88000   0.79560   0.01267  Uiso   1.00
C1052  C     0.03663   0.89014   0.84239   0.01267  Uiso   1.00
C1053  C     0.05892   0.90656   0.82541   0.01267  Uiso   1.00
C1054  C     0.06728   0.89641   0.80253   0.01267  Uiso   1.00
O1055  O     0.02808   0.90180   0.86250   0.01267  Uiso   1.00
O1056  O     0.02881   0.86939   0.82972   0.01267  Uiso   1.00
H1057  H     0.62000   0.79560   0.44000   0.01267  Uiso   1.00
C1058  C     0.60986   0.84239   0.46337   0.01267  Uiso   1.00
C1059  C     0.59344   0.82541   0.44108   0.01267  Uiso   1.00
C1060  C     0.60359   0.80253   0.43272   0.01267  Uiso   1.00
O1061  O     0.59820   0.86250   0.47192   0.01267  Uiso   1.00
O1062  O     0.63061   0.82972   0.47119   0.01267  Uiso   1.00
H1063  H     0.62000   0.29560   0.94000   0.01267  Uiso   1.00
C1064  C     0.60986   0.34239   0.96337   0.01267  Uiso   1.00
C1065  C     0.59344   0.32541   0.94108   0.01267  Uiso   1.00
C1066  C     0.60359   0.30253   0.93272   0.01267  Uiso   1.00
O1067  O     0.59820   0.36250   0.97192   0.01267  Uiso   1.00
O1068  O     0.63061   0.32972   0.97119   0.01267  Uiso   1.00
H1069  H     0.12000   0.79560   0.94000   0.01267  Uiso   1.00
C1070  C     0.10986   0.84239   0.96337   0.01267  Uiso   1.00
C1071  C     0.09344   0.82541   0.94108   0.01267  Uiso   1.00
C1072  C     0.10359   0.80253   0.93272   0.01267  Uiso   1.00
O1073  O     0.09820   0.86250   0.97192   0.01267  Uiso   1.00
O1074  O     0.13061   0.82972   0.97119   0.01267  Uiso   1.00
H1075  H     0.12000   0.29560   0.44000   0.01267  Uiso   1.00
C1076  C     0.10986   0.34239   0.46337   0.01267  Uiso   1.00
C1077  C     0.09344   0.32541   0.44108   0.01267  Uiso   1.00
C1078  C     0.10359   0.30253   0.43272   0.01267  Uiso   1.00
O1079  O     0.09820   0.36250   0.47192   0.01267  Uiso   1.00
O1080  O     0.13061   0.32972   0.47119   0.01267  Uiso   1.00
H1081  H     0.62000   0.20440   0.56000   0.01267  Uiso   1.00
C1082  C     0.60986   0.15761   0.53663   0.01267  Uiso   1.00
C1083  C     0.59344   0.17459   0.55892   0.01267  Uiso   1.00
C1084  C     0.60359   0.19747   0.56728   0.01267  Uiso   1.00
O1085  O     0.59820   0.13750   0.52808   0.01267  Uiso   1.00
O1086  O     0.63061   0.17028   0.52881   0.01267  Uiso   1.00
H1087  H     0.62000   0.70440   0.06000   0.01267  Uiso   1.00
C1088  C     0.60986   0.65761   0.03663   0.01267  Uiso   1.00
C1089  C     0.59344   0.67459   0.05892   0.01267  Uiso   1.00
C1090  C     0.60359   0.69747   0.06728   0.01267  Uiso   1.00
O1091  O     0.59820   0.63750   0.02808   0.01267  Uiso   1.00
O1092  O     0.63061   0.67028   0.02881   0.01267  Uiso   1.00
H1093  H     0.12000   0.20440   0.06000   0.01267  Uiso   1.00
C1094  C     0.10986   0.15761   0.03663   0.01267  Uiso   1.00
C1095  C     0.09344   0.17459   0.05892   0.01267  Uiso   1.00
C1096  C     0.10359   0.19747   0.06728   0.01267  Uiso   1.00
O1097  O     0.09820   0.13750   0.02808   0.01267  Uiso   1.00
O1098  O     0.13061   0.17028   0.02881   0.01267  Uiso   1.00
H1099  H     0.12000   0.70440   0.56000   0.01267  Uiso   1.00
C1100  C     0.10986   0.65761   0.53663   0.01267  Uiso   1.00
C1101  C     0.09344   0.67459   0.55892   0.01267  Uiso   1.00
C1102  C     0.10359   0.69747   0.56728   0.01267  Uiso   1.00
O1103  O     0.09820   0.63750   0.52808   0.01267  Uiso   1.00
O1104  O     0.13061   0.67028   0.52881   0.01267  Uiso   1.00
H1105  H     0.38000   0.79560   0.56000   0.01267  Uiso   1.00
C1106  C     0.39014   0.84239   0.53663   0.01267  Uiso   1.00
C1107  C     0.40656   0.82541   0.55892   0.01267  Uiso   1.00
C1108  C     0.39641   0.80253   0.56728   0.01267  Uiso   1.00
O1109  O     0.40180   0.86250   0.52808   0.01267  Uiso   1.00
O1110  O     0.36939   0.82972   0.52881   0.01267  Uiso   1.00
H1111  H     0.38000   0.29560   0.06000   0.01267  Uiso   1.00
C1112  C     0.39014   0.34239   0.03663   0.01267  Uiso   1.00
C1113  C     0.40656   0.32541   0.05892   0.01267  Uiso   1.00
C1114  C     0.39641   0.30253   0.06728   0.01267  Uiso   1.00
O1115  O     0.40180   0.36250   0.02808   0.01267  Uiso   1.00
O1116  O     0.36939   0.32972   0.02881   0.01267  Uiso   1.00
H1117  H     0.88000   0.79560   0.06000   0.01267  Uiso   1.00
C1118  C     0.89014   0.84239   0.03663   0.01267  Uiso   1.00
C1119  C     0.90656   0.82541   0.05892   0.01267  Uiso   1.00
C1120  C     0.89641   0.80253   0.06728   0.01267  Uiso   1.00
O1121  O     0.90180   0.86250   0.02808   0.01267  Uiso   1.00
O1122  O     0.86939   0.82972   0.02881   0.01267  Uiso   1.00
H1123  H     0.88000   0.29560   0.56000   0.01267  Uiso   1.00
C1124  C     0.89014   0.34239   0.53663   0.01267  Uiso   1.00
C1125  C     0.90656   0.32541   0.55892   0.01267  Uiso   1.00
C1126  C     0.89641   0.30253   0.56728   0.01267  Uiso   1.00
O1127  O     0.90180   0.36250   0.52808   0.01267  Uiso   1.00
O1128  O     0.86939   0.32972   0.52881   0.01267  Uiso   1.00
H1129  H     0.38000   0.20440   0.44000   0.01267  Uiso   1.00
C1130  C     0.39014   0.15761   0.46337   0.01267  Uiso   1.00
C1131  C     0.40656   0.17459   0.44108   0.01267  Uiso   1.00
C1132  C     0.39641   0.19747   0.43272   0.01267  Uiso   1.00
O1133  O     0.40180   0.13750   0.47192   0.01267  Uiso   1.00
O1134  O     0.36939   0.17028   0.47119   0.01267  Uiso   1.00
H1135  H     0.38000   0.70440   0.94000   0.01267  Uiso   1.00
C1136  C     0.39014   0.65761   0.96337   0.01267  Uiso   1.00
C1137  C     0.40656   0.67459   0.94108   0.01267  Uiso   1.00
C1138  C     0.39641   0.69747   0.93272   0.01267  Uiso   1.00
O1139  O     0.40180   0.63750   0.97192   0.01267  Uiso   1.00
O1140  O     0.36939   0.67028   0.97119   0.01267  Uiso   1.00
H1141  H     0.88000   0.20440   0.94000   0.01267  Uiso   1.00
C1142  C     0.89014   0.15761   0.96337   0.01267  Uiso   1.00
C1143  C     0.90656   0.17459   0.94108   0.01267  Uiso   1.00
C1144  C     0.89641   0.19747   0.93272   0.01267  Uiso   1.00
O1145  O     0.90180   0.13750   0.97192   0.01267  Uiso   1.00
O1146  O     0.86939   0.17028   0.97119   0.01267  Uiso   1.00
H1147  H     0.88000   0.70440   0.44000   0.01267  Uiso   1.00
C1148  C     0.89014   0.65761   0.46337   0.01267  Uiso   1.00
C1149  C     0.90656   0.67459   0.44108   0.01267  Uiso   1.00
C1150  C     0.89641   0.69747   0.43272   0.01267  Uiso   1.00
O1151  O     0.90180   0.63750   0.47192   0.01267  Uiso   1.00
O1152  O     0.86939   0.67028   0.47119   0.01267  Uiso   1.00
Cu1153 Cu    0.50000   0.11475   0.38525   0.01267  Uiso   1.00
Cu1154 Cu    0.00000   0.11475   0.88525   0.01267  Uiso   1.00
Cu1155 Cu    0.50000   0.88525   0.38525   0.01267  Uiso   1.00
Cu1156 Cu   -0.00000   0.88525   0.88525   0.01267  Uiso   1.00
Cu1157 Cu    0.50000   0.11475   0.61475   0.01267  Uiso   1.00
Cu1158 Cu   -0.00000   0.11475   0.11475   0.01267  Uiso   1.00
Cu1159 Cu    0.50000   0.88525   0.61475   0.01267  Uiso   1.00
Cu1160 Cu   -0.00000   0.88525   0.11475   0.01267  Uiso   1.00
Cu1161 Cu    0.38525   0.50000   0.11475   0.01267  Uiso   1.00
Cu1162 Cu    0.38525   0.00000   0.61475   0.01267  Uiso   1.00
Cu1163 Cu    0.38525   0.50000   0.88525   0.01267  Uiso   1.00
Cu1164 Cu    0.38525   0.00000   0.38525   0.01267  Uiso   1.00
Cu1165 Cu    0.61475   0.50000   0.11475   0.01267  Uiso   1.00
Cu1166 Cu    0.61475  -0.00000   0.61475   0.01267  Uiso   1.00
Cu1167 Cu    0.61475   0.50000   0.88525   0.01267  Uiso   1.00
Cu1168 Cu    0.61475   0.00000   0.38525   0.01267  Uiso   1.00
Cu1169 Cu    0.11475   0.38525   0.50000   0.01267  Uiso   1.00
Cu1170 Cu    0.11475   0.88525  -0.00000   0.01267  Uiso   1.00
Cu1171 Cu    0.88525   0.38525   0.50000   0.01267  Uiso   1.00
Cu1172 Cu    0.88525   0.88525  -0.00000   0.01267  Uiso   1.00
Cu1173 Cu    0.11475   0.61475   0.50000   0.01267  Uiso   1.00
Cu1174 Cu    0.11475   0.11475   0.00000   0.01267  Uiso   1.00
Cu1175 Cu    0.88525   0.61475   0.50000   0.01267  Uiso   1.00
Cu1176 Cu    0.88525   0.11475  -0.00000   0.01267  Uiso   1.00
Cu1177 Cu    0.11475   0.50000   0.61475   0.01267  Uiso   1.00
Cu1178 Cu    0.11475  -0.00000   0.11475   0.01267  Uiso   1.00
Cu1179 Cu    0.88525   0.50000   0.61475   0.01267  Uiso   1.00
Cu1180 Cu    0.88525   0.00000   0.11475   0.01267  Uiso   1.00
Cu1181 Cu    0.11475   0.50000   0.38525   0.01267  Uiso   1.00
Cu1182 Cu    0.11475   0.00000   0.88525   0.01267  Uiso   1.00
Cu1183 Cu    0.88525   0.50000   0.38525   0.01267  Uiso   1.00
Cu1184 Cu    0.88525   0.00000   0.88525   0.01267  Uiso   1.00
Cu1185 Cu    0.50000   0.38525   0.88525   0.01267  Uiso   1.00
Cu1186 Cu    0.00000   0.38525   0.38525   0.01267  Uiso   1.00
Cu1187 Cu    0.50000   0.38525   0.11475   0.01267  Uiso   1.00
Cu1188 Cu   -0.00000   0.38525   0.61475   0.01267  Uiso   1.00
Cu1189 Cu    0.50000   0.61475   0.88525   0.01267  Uiso   1.00
Cu1190 Cu   -0.00000   0.61475   0.38525   0.01267  Uiso   1.00
Cu1191 Cu    0.50000   0.61475   0.11475   0.01267  Uiso   1.00
Cu1192 Cu   -0.00000   0.61475   0.61475   0.01267  Uiso   1.00
Cu1193 Cu    0.38525   0.11475   0.50000   0.01267  Uiso   1.00
Cu1194 Cu    0.38525   0.61475  -0.00000   0.01267  Uiso   1.00
Cu1195 Cu    0.38525   0.88525   0.50000   0.01267  Uiso   1.00
Cu1196 Cu    0.38525   0.38525   0.00000   0.01267  Uiso   1.00
Cu1197 Cu    0.61475   0.11475   0.50000   0.01267  Uiso   1.00
Cu1198 Cu    0.61475   0.61475  -0.00000   0.01267  Uiso   1.00
Cu1199 Cu    0.61475   0.88525   0.50000   0.01267  Uiso   1.00
Cu1200 Cu    0.61475   0.38525  -0.00000   0.01267  Uiso   1.00
Cu1201 Cu   -0.00000   0.65320   0.34680   0.01267  Uiso   1.00
Cu1202 Cu    0.00000   0.15320   0.84680   0.01267  Uiso   1.00
Cu1203 Cu    0.50000   0.65320   0.84680   0.01267  Uiso   1.00
Cu1204 Cu    0.50000   0.15320   0.34680   0.01267  Uiso   1.00
Cu1205 Cu   -0.00000   0.34680   0.34680   0.01267  Uiso   1.00
Cu1206 Cu   -0.00000   0.84680   0.84680   0.01267  Uiso   1.00
Cu1207 Cu    0.50000   0.34680   0.84680   0.01267  Uiso   1.00
Cu1208 Cu    0.50000   0.84680   0.34680   0.01267  Uiso   1.00
Cu1209 Cu   -0.00000   0.65320   0.65320   0.01267  Uiso   1.00
Cu1210 Cu   -0.00000   0.15320   0.15320   0.01267  Uiso   1.00
Cu1211 Cu    0.50000   0.65320   0.15320   0.01267  Uiso   1.00
Cu1212 Cu    0.50000   0.15320   0.65320   0.01267  Uiso   1.00
Cu1213 Cu   -0.00000   0.34680   0.65320   0.01267  Uiso   1.00
Cu1214 Cu    0.00000   0.84680   0.15320   0.01267  Uiso   1.00
Cu1215 Cu    0.50000   0.34680   0.15320   0.01267  Uiso   1.00
Cu1216 Cu    0.50000   0.84680   0.65320   0.01267  Uiso   1.00
Cu1217 Cu    0.34680   0.00000   0.65320   0.01267  Uiso   1.00
Cu1218 Cu    0.34680   0.50000   0.15320   0.01267  Uiso   1.00
Cu1219 Cu    0.84680   0.00000   0.15320   0.01267  Uiso   1.00
Cu1220 Cu    0.84680   0.50000   0.65320   0.01267  Uiso   1.00
Cu1221 Cu    0.34680  -0.00000   0.34680   0.01267  Uiso   1.00
Cu1222 Cu    0.34680   0.50000   0.84680   0.01267  Uiso   1.00
Cu1223 Cu    0.84680  -0.00000   0.84680   0.01267  Uiso   1.00
Cu1224 Cu    0.84680   0.50000   0.34680   0.01267  Uiso   1.00
Cu1225 Cu    0.65320  -0.00000   0.65320   0.01267  Uiso   1.00
Cu1226 Cu    0.65320   0.50000   0.15320   0.01267  Uiso   1.00
Cu1227 Cu    0.15320  -0.00000   0.15320   0.01267  Uiso   1.00
Cu1228 Cu    0.15320   0.50000   0.65320   0.01267  Uiso   1.00
Cu1229 Cu    0.65320   0.00000   0.34680   0.01267  Uiso   1.00
Cu1230 Cu    0.65320   0.50000   0.84680   0.01267  Uiso   1.00
Cu1231 Cu    0.15320   0.00000   0.84680   0.01267  Uiso   1.00
Cu1232 Cu    0.15320   0.50000   0.34680   0.01267  Uiso   1.00
Cu1233 Cu    0.65320   0.34680  -0.00000   0.01267  Uiso   1.00
Cu1234 Cu    0.65320   0.84680   0.50000   0.01267  Uiso   1.00
Cu1235 Cu    0.15320   0.34680   0.50000   0.01267  Uiso   1.00
Cu1236 Cu    0.15320   0.84680  -0.00000   0.01267  Uiso   1.00
Cu1237 Cu    0.34680   0.34680  -0.00000   0.01267  Uiso   1.00
Cu1238 Cu    0.34680   0.84680   0.50000   0.01267  Uiso   1.00
Cu1239 Cu    0.84680   0.34680   0.50000   0.01267  Uiso   1.00
Cu1240 Cu    0.84680   0.84680  -0.00000   0.01267  Uiso   1.00
Cu1241 Cu    0.65320   0.65320  -0.00000   0.01267  Uiso   1.00
Cu1242 Cu    0.65320   0.15320   0.50000   0.01267  Uiso   1.00
Cu1243 Cu    0.15320   0.65320   0.50000   0.01267  Uiso   1.00
Cu1244 Cu    0.15320   0.15320  -0.00000   0.01267  Uiso   1.00
Cu1245 Cu    0.34680   0.65320  -0.00000   0.01267  Uiso   1.00
Cu1246 Cu    0.34680   0.15320   0.50000   0.01267  Uiso   1.00
Cu1247 Cu    0.84680   0.65320   0.50000   0.01267  Uiso   1.00
Cu1248 Cu    0.84680   0.15320  -0.00000   0.01267  Uiso   1.00
H1249  H     0.43350   0.14330   0.43350   0.01267  Uiso   1.00
C1250  C     0.42806   0.16092   0.42806   0.01267  Uiso   1.00
C1251  C     0.41150   0.21210   0.41150   0.01267  Uiso   1.00
C1252  C     0.39984   0.23750   0.39984   0.01267  Uiso   1.00
C1253  C     0.39280   0.25950   0.39280   0.01267  Uiso   1.00
C1254  C     0.38160   0.28240   0.38160   0.01267  Uiso   1.00
C1255  C     0.37440   0.30450   0.37440   0.01267  Uiso   1.00
C1256  C     0.36330   0.32930   0.36330   0.01267  Uiso   1.00
H1257  H     0.43350   0.64330   0.93350   0.01267  Uiso   1.00
C1258  C     0.42806   0.66092   0.92806   0.01267  Uiso   1.00
C1259  C     0.41150   0.71210   0.91150   0.01267  Uiso   1.00
C1260  C     0.39984   0.73750   0.89984   0.01267  Uiso   1.00
C1261  C     0.39280   0.75950   0.89280   0.01267  Uiso   1.00
C1262  C     0.38160   0.78240   0.88160   0.01267  Uiso   1.00
C1263  C     0.37440   0.80450   0.87440   0.01267  Uiso   1.00
C1264  C     0.36330   0.82930   0.86330   0.01267  Uiso   1.00
H1265  H     0.93350   0.14330   0.93350   0.01267  Uiso   1.00
C1266  C     0.92806   0.16092   0.92806   0.01267  Uiso   1.00
C1267  C     0.91150   0.21210   0.91150   0.01267  Uiso   1.00
C1268  C     0.89984   0.23750   0.89984   0.01267  Uiso   1.00
C1269  C     0.89280   0.25950   0.89280   0.01267  Uiso   1.00
C1270  C     0.88160   0.28240   0.88160   0.01267  Uiso   1.00
C1271  C     0.87440   0.30450   0.87440   0.01267  Uiso   1.00
C1272  C     0.86330   0.32930   0.86330   0.01267  Uiso   1.00
H1273  H     0.93350   0.64330   0.43350   0.01267  Uiso   1.00
C1274  C     0.92806   0.66092   0.42806   0.01267  Uiso   1.00
C1275  C     0.91150   0.71210   0.41150   0.01267  Uiso   1.00
C1276  C     0.89984   0.73750   0.39984   0.01267  Uiso   1.00
C1277  C     0.89280   0.75950   0.39280   0.01267  Uiso   1.00
C1278  C     0.88160   0.78240   0.38160   0.01267  Uiso   1.00
C1279  C     0.87440   0.80450   0.37440   0.01267  Uiso   1.00
C1280  C     0.86330   0.82930   0.36330   0.01267  Uiso   1.00
H1281  H     0.56650   0.85670   0.43350   0.01267  Uiso   1.00
C1282  C     0.57194   0.83908   0.42806   0.01267  Uiso   1.00
C1283  C     0.58850   0.78790   0.41150   0.01267  Uiso   1.00
C1284  C     0.60016   0.76250   0.39984   0.01267  Uiso   1.00
C1285  C     0.60720   0.74050   0.39280   0.01267  Uiso   1.00
C1286  C     0.61840   0.71760   0.38160   0.01267  Uiso   1.00
C1287  C     0.62560   0.69550   0.37440   0.01267  Uiso   1.00
C1288  C     0.63670   0.67070   0.36330   0.01267  Uiso   1.00
H1289  H     0.56650   0.35670   0.93350   0.01267  Uiso   1.00
C1290  C     0.57194   0.33908   0.92806   0.01267  Uiso   1.00
C1291  C     0.58850   0.28790   0.91150   0.01267  Uiso   1.00
C1292  C     0.60016   0.26250   0.89984   0.01267  Uiso   1.00
C1293  C     0.60720   0.24050   0.89280   0.01267  Uiso   1.00
C1294  C     0.61840   0.21760   0.88160   0.01267  Uiso   1.00
C1295  C     0.62560   0.19550   0.87440   0.01267  Uiso   1.00
C1296  C     0.63670   0.17070   0.86330   0.01267  Uiso   1.00
H1297  H     0.06650   0.85670   0.93350   0.01267  Uiso   1.00
C1298  C     0.07194   0.83908   0.92806   0.01267  Uiso   1.00
C1299  C     0.08850   0.78790   0.91150   0.01267  Uiso   1.00
C1300  C     0.10016   0.76250   0.89984   0.01267  Uiso   1.00
C1301  C     0.10720   0.74050   0.89280   0.01267  Uiso   1.00
C1302  C     0.11840   0.71760   0.88160   0.01267  Uiso   1.00
C1303  C     0.12560   0.69550   0.87440   0.01267  Uiso   1.00
C1304  C     0.13670   0.67070   0.86330   0.01267  Uiso   1.00
H1305  H     0.06650   0.35670   0.43350   0.01267  Uiso   1.00
C1306  C     0.07194   0.33908   0.42806   0.01267  Uiso   1.00
C1307  C     0.08850   0.28790   0.41150   0.01267  Uiso   1.00
C1308  C     0.10016   0.26250   0.39984   0.01267  Uiso   1.00
C1309  C     0.10720   0.24050   0.39280   0.01267  Uiso   1.00
C1310  C     0.11840   0.21760   0.38160   0.01267  Uiso   1.00
C1311  C     0.12560   0.19550   0.37440   0.01267  Uiso   1.00
C1312  C     0.13670   0.17070   0.36330   0.01267  Uiso   1.00
H1313  H     0.56650   0.14330   0.56650   0.01267  Uiso   1.00
C1314  C     0.57194   0.16092   0.57194   0.01267  Uiso   1.00
C1315  C     0.58850   0.21210   0.58850   0.01267  Uiso   1.00
C1316  C     0.60016   0.23750   0.60016   0.01267  Uiso   1.00
C1317  C     0.60720   0.25950   0.60720   0.01267  Uiso   1.00
C1318  C     0.61840   0.28240   0.61840   0.01267  Uiso   1.00
C1319  C     0.62560   0.30450   0.62560   0.01267  Uiso   1.00
C1320  C     0.63670   0.32930   0.63670   0.01267  Uiso   1.00
H1321  H     0.56650   0.64330   0.06650   0.01267  Uiso   1.00
C1322  C     0.57194   0.66092   0.07194   0.01267  Uiso   1.00
C1323  C     0.58850   0.71210   0.08850   0.01267  Uiso   1.00
C1324  C     0.60016   0.73750   0.10016   0.01267  Uiso   1.00
C1325  C     0.60720   0.75950   0.10720   0.01267  Uiso   1.00
C1326  C     0.61840   0.78240   0.11840   0.01267  Uiso   1.00
C1327  C     0.62560   0.80450   0.12560   0.01267  Uiso   1.00
C1328  C     0.63670   0.82930   0.13670   0.01267  Uiso   1.00
H1329  H     0.06650   0.14330   0.06650   0.01267  Uiso   1.00
C1330  C     0.07194   0.16092   0.07194   0.01267  Uiso   1.00
C1331  C     0.08850   0.21210   0.08850   0.01267  Uiso   1.00
C1332  C     0.10016   0.23750   0.10016   0.01267  Uiso   1.00
C1333  C     0.10720   0.25950   0.10720   0.01267  Uiso   1.00
C1334  C     0.11840   0.28240   0.11840   0.01267  Uiso   1.00
C1335  C     0.12560   0.30450   0.12560   0.01267  Uiso   1.00
C1336  C     0.13670   0.32930   0.13670   0.01267  Uiso   1.00
H1337  H     0.06650   0.64330   0.56650   0.01267  Uiso   1.00
C1338  C     0.07194   0.66092   0.57194   0.01267  Uiso   1.00
C1339  C     0.08850   0.71210   0.58850   0.01267  Uiso   1.00
C1340  C     0.10016   0.73750   0.60016   0.01267  Uiso   1.00
C1341  C     0.10720   0.75950   0.60720   0.01267  Uiso   1.00
C1342  C     0.11840   0.78240   0.61840   0.01267  Uiso   1.00
C1343  C     0.12560   0.80450   0.62560   0.01267  Uiso   1.00
C1344  C     0.13670   0.82930   0.63670   0.01267  Uiso   1.00
H1345  H     0.43350   0.85670   0.56650   0.01267  Uiso   1.00
C1346  C     0.42806   0.83908   0.57194   0.01267  Uiso   1.00
C1347  C     0.41150   0.78790   0.58850   0.01267  Uiso   1.00
C1348  C     0.39984   0.76250   0.60016   0.01267  Uiso   1.00
C1349  C     0.39280   0.74050   0.60720   0.01267  Uiso   1.00
C1350  C     0.38160   0.71760   0.61840   0.01267  Uiso   1.00
C1351  C     0.37440   0.69550   0.62560   0.01267  Uiso   1.00
C1352  C     0.36330   0.67070   0.63670   0.01267  Uiso   1.00
H1353  H     0.43350   0.35670   0.06650   0.01267  Uiso   1.00
C1354  C     0.42806   0.33908   0.07194   0.01267  Uiso   1.00
C1355  C     0.41150   0.28790   0.08850   0.01267  Uiso   1.00
C1356  C     0.39984   0.26250   0.10016   0.01267  Uiso   1.00
C1357  C     0.39280   0.24050   0.10720   0.01267  Uiso   1.00
C1358  C     0.38160   0.21760   0.11840   0.01267  Uiso   1.00
C1359  C     0.37440   0.19550   0.12560   0.01267  Uiso   1.00
C1360  C     0.36330   0.17070   0.13670   0.01267  Uiso   1.00
H1361  H     0.93350   0.85670   0.06650   0.01267  Uiso   1.00
C1362  C     0.92806   0.83908   0.07194   0.01267  Uiso   1.00
C1363  C     0.91150   0.78790   0.08850   0.01267  Uiso   1.00
C1364  C     0.89984   0.76250   0.10016   0.01267  Uiso   1.00
C1365  C     0.89280   0.74050   0.10720   0.01267  Uiso   1.00
C1366  C     0.88160   0.71760   0.11840   0.01267  Uiso   1.00
C1367  C     0.87440   0.69550   0.12560   0.01267  Uiso   1.00
C1368  C     0.86330   0.67070   0.13670   0.01267  Uiso   1.00
H1369  H     0.93350   0.35670   0.56650   0.01267  Uiso   1.00
C1370  C     0.92806   0.33908   0.57194   0.01267  Uiso   1.00
C1371  C     0.91150   0.28790   0.58850   0.01267  Uiso   1.00
C1372  C     0.89984   0.26250   0.60016   0.01267  Uiso   1.00
C1373  C     0.89280   0.24050   0.60720   0.01267  Uiso   1.00
C1374  C     0.88160   0.21760   0.61840   0.01267  Uiso   1.00
C1375  C     0.87440   0.19550   0.62560   0.01267  Uiso   1.00
C1376  C     0.86330   0.17070   0.63670   0.01267  Uiso   1.00
H1377  H     0.43350   0.43350   0.14330   0.01267  Uiso   1.00
C1378  C     0.42806   0.42806   0.16092   0.01267  Uiso   1.00
C1379  C     0.41150   0.41150   0.21210   0.01267  Uiso   1.00
C1380  C     0.39984   0.39984   0.23750   0.01267  Uiso   1.00
C1381  C     0.39280   0.39280   0.25950   0.01267  Uiso   1.00
C1382  C     0.38160   0.38160   0.28240   0.01267  Uiso   1.00
C1383  C     0.37440   0.37440   0.30450   0.01267  Uiso   1.00
C1384  C     0.36330   0.36330   0.32930   0.01267  Uiso   1.00
H1385  H     0.43350   0.93350   0.64330   0.01267  Uiso   1.00
C1386  C     0.42806   0.92806   0.66092   0.01267  Uiso   1.00
C1387  C     0.41150   0.91150   0.71210   0.01267  Uiso   1.00
C1388  C     0.39984   0.89984   0.73750   0.01267  Uiso   1.00
C1389  C     0.39280   0.89280   0.75950   0.01267  Uiso   1.00
C1390  C     0.38160   0.88160   0.78240   0.01267  Uiso   1.00
C1391  C     0.37440   0.87440   0.80450   0.01267  Uiso   1.00
C1392  C     0.36330   0.86330   0.82930   0.01267  Uiso   1.00
H1393  H     0.93350   0.43350   0.64330   0.01267  Uiso   1.00
C1394  C     0.92806   0.42806   0.66092   0.01267  Uiso   1.00
C1395  C     0.91150   0.41150   0.71210   0.01267  Uiso   1.00
C1396  C     0.89984   0.39984   0.73750   0.01267  Uiso   1.00
C1397  C     0.89280   0.39280   0.75950   0.01267  Uiso   1.00
C1398  C     0.88160   0.38160   0.78240   0.01267  Uiso   1.00
C1399  C     0.87440   0.37440   0.80450   0.01267  Uiso   1.00
C1400  C     0.86330   0.36330   0.82930   0.01267  Uiso   1.00
H1401  H     0.93350   0.93350   0.14330   0.01267  Uiso   1.00
C1402  C     0.92806   0.92806   0.16092   0.01267  Uiso   1.00
C1403  C     0.91150   0.91150   0.21210   0.01267  Uiso   1.00
C1404  C     0.89984   0.89984   0.23750   0.01267  Uiso   1.00
C1405  C     0.89280   0.89280   0.25950   0.01267  Uiso   1.00
C1406  C     0.88160   0.88160   0.28240   0.01267  Uiso   1.00
C1407  C     0.87440   0.87440   0.30450   0.01267  Uiso   1.00
C1408  C     0.86330   0.86330   0.32930   0.01267  Uiso   1.00
H1409  H     0.43350   0.56650   0.85670   0.01267  Uiso   1.00
C1410  C     0.42806   0.57194   0.83908   0.01267  Uiso   1.00
C1411  C     0.41150   0.58850   0.78790   0.01267  Uiso   1.00
C1412  C     0.39984   0.60016   0.76250   0.01267  Uiso   1.00
C1413  C     0.39280   0.60720   0.74050   0.01267  Uiso   1.00
C1414  C     0.38160   0.61840   0.71760   0.01267  Uiso   1.00
C1415  C     0.37440   0.62560   0.69550   0.01267  Uiso   1.00
C1416  C     0.36330   0.63670   0.67070   0.01267  Uiso   1.00
H1417  H     0.43350   0.06650   0.35670   0.01267  Uiso   1.00
C1418  C     0.42806   0.07194   0.33908   0.01267  Uiso   1.00
C1419  C     0.41150   0.08850   0.28790   0.01267  Uiso   1.00
C1420  C     0.39984   0.10016   0.26250   0.01267  Uiso   1.00
C1421  C     0.39280   0.10720   0.24050   0.01267  Uiso   1.00
C1422  C     0.38160   0.11840   0.21760   0.01267  Uiso   1.00
C1423  C     0.37440   0.12560   0.19550   0.01267  Uiso   1.00
C1424  C     0.36330   0.13670   0.17070   0.01267  Uiso   1.00
H1425  H     0.93350   0.56650   0.35670   0.01267  Uiso   1.00
C1426  C     0.92806   0.57194   0.33908   0.01267  Uiso   1.00
C1427  C     0.91150   0.58850   0.28790   0.01267  Uiso   1.00
C1428  C     0.89984   0.60016   0.26250   0.01267  Uiso   1.00
C1429  C     0.89280   0.60720   0.24050   0.01267  Uiso   1.00
C1430  C     0.88160   0.61840   0.21760   0.01267  Uiso   1.00
C1431  C     0.87440   0.62560   0.19550   0.01267  Uiso   1.00
C1432  C     0.86330   0.63670   0.17070   0.01267  Uiso   1.00
H1433  H     0.93350   0.06650   0.85670   0.01267  Uiso   1.00
C1434  C     0.92806   0.07194   0.83908   0.01267  Uiso   1.00
C1435  C     0.91150   0.08850   0.78790   0.01267  Uiso   1.00
C1436  C     0.89984   0.10016   0.76250   0.01267  Uiso   1.00
C1437  C     0.89280   0.10720   0.74050   0.01267  Uiso   1.00
C1438  C     0.88160   0.11840   0.71760   0.01267  Uiso   1.00
C1439  C     0.87440   0.12560   0.69550   0.01267  Uiso   1.00
C1440  C     0.86330   0.13670   0.67070   0.01267  Uiso   1.00
H1441  H     0.56650   0.56650   0.14330   0.01267  Uiso   1.00
C1442  C     0.57194   0.57194   0.16092   0.01267  Uiso   1.00
C1443  C     0.58850   0.58850   0.21210   0.01267  Uiso   1.00
C1444  C     0.60016   0.60016   0.23750   0.01267  Uiso   1.00
C1445  C     0.60720   0.60720   0.25950   0.01267  Uiso   1.00
C1446  C     0.61840   0.61840   0.28240   0.01267  Uiso   1.00
C1447  C     0.62560   0.62560   0.30450   0.01267  Uiso   1.00
C1448  C     0.63670   0.63670   0.32930   0.01267  Uiso   1.00
H1449  H     0.56650   0.06650   0.64330   0.01267  Uiso   1.00
C1450  C     0.57194   0.07194   0.66092   0.01267  Uiso   1.00
C1451  C     0.58850   0.08850   0.71210   0.01267  Uiso   1.00
C1452  C     0.60016   0.10016   0.73750   0.01267  Uiso   1.00
C1453  C     0.60720   0.10720   0.75950   0.01267  Uiso   1.00
C1454  C     0.61840   0.11840   0.78240   0.01267  Uiso   1.00
C1455  C     0.62560   0.12560   0.80450   0.01267  Uiso   1.00
C1456  C     0.63670   0.13670   0.82930   0.01267  Uiso   1.00
H1457  H     0.06650   0.56650   0.64330   0.01267  Uiso   1.00
C1458  C     0.07194   0.57194   0.66092   0.01267  Uiso   1.00
C1459  C     0.08850   0.58850   0.71210   0.01267  Uiso   1.00
C1460  C     0.10016   0.60016   0.73750   0.01267  Uiso   1.00
C1461  C     0.10720   0.60720   0.75950   0.01267  Uiso   1.00
C1462  C     0.11840   0.61840   0.78240   0.01267  Uiso   1.00
C1463  C     0.12560   0.62560   0.80450   0.01267  Uiso   1.00
C1464  C     0.13670   0.63670   0.82930   0.01267  Uiso   1.00
H1465  H     0.06650   0.06650   0.14330   0.01267  Uiso   1.00
C1466  C     0.07194   0.07194   0.16092   0.01267  Uiso   1.00
C1467  C     0.08850   0.08850   0.21210   0.01267  Uiso   1.00
C1468  C     0.10016   0.10016   0.23750   0.01267  Uiso   1.00
C1469  C     0.10720   0.10720   0.25950   0.01267  Uiso   1.00
C1470  C     0.11840   0.11840   0.28240   0.01267  Uiso   1.00
C1471  C     0.12560   0.12560   0.30450   0.01267  Uiso   1.00
C1472  C     0.13670   0.13670   0.32930   0.01267  Uiso   1.00
H1473  H     0.56650   0.43350   0.85670   0.01267  Uiso   1.00
C1474  C     0.57194   0.42806   0.83908   0.01267  Uiso   1.00
C1475  C     0.58850   0.41150   0.78790   0.01267  Uiso   1.00
C1476  C     0.60016   0.39984   0.76250   0.01267  Uiso   1.00
C1477  C     0.60720   0.39280   0.74050   0.01267  Uiso   1.00
C1478  C     0.61840   0.38160   0.71760   0.01267  Uiso   1.00
C1479  C     0.62560   0.37440   0.69550   0.01267  Uiso   1.00
C1480  C     0.63670   0.36330   0.67070   0.01267  Uiso   1.00
H1481  H     0.56650   0.93350   0.35670   0.01267  Uiso   1.00
C1482  C     0.57194   0.92806   0.33908   0.01267  Uiso   1.00
C1483  C     0.58850   0.91150   0.28790   0.01267  Uiso   1.00
C1484  C     0.60016   0.89984   0.26250   0.01267  Uiso   1.00
C1485  C     0.60720   0.89280   0.24050   0.01267  Uiso   1.00
C1486  C     0.61840   0.88160   0.21760   0.01267  Uiso   1.00
C1487  C     0.62560   0.87440   0.19550   0.01267  Uiso   1.00
C1488  C     0.63670   0.86330   0.17070   0.01267  Uiso   1.00
H1489  H     0.06650   0.43350   0.35670   0.01267  Uiso   1.00
C1490  C     0.07194   0.42806   0.33908   0.01267  Uiso   1.00
C1491  C     0.08850   0.41150   0.28790   0.01267  Uiso   1.00
C1492  C     0.10016   0.39984   0.26250   0.01267  Uiso   1.00
C1493  C     0.10720   0.39280   0.24050   0.01267  Uiso   1.00
C1494  C     0.11840   0.38160   0.21760   0.01267  Uiso   1.00
C1495  C     0.12560   0.37440   0.19550   0.01267  Uiso   1.00
C1496  C     0.13670   0.36330   0.17070   0.01267  Uiso   1.00
H1497  H     0.06650   0.93350   0.85670   0.01267  Uiso   1.00
C1498  C     0.07194   0.92806   0.83908   0.01267  Uiso   1.00
C1499  C     0.08850   0.91150   0.78790   0.01267  Uiso   1.00
C1500  C     0.10016   0.89984   0.76250   0.01267  Uiso   1.00
C1501  C     0.10720   0.89280   0.74050   0.01267  Uiso   1.00
C1502  C     0.11840   0.88160   0.71760   0.01267  Uiso   1.00
C1503  C     0.12560   0.87440   0.69550   0.01267  Uiso   1.00
C1504  C     0.13670   0.86330   0.67070   0.01267  Uiso   1.00
H1505  H     0.14330   0.43350   0.43350   0.01267  Uiso   1.00
C1506  C     0.16092   0.42806   0.42806   0.01267  Uiso   1.00
C1507  C     0.21210   0.41150   0.41150   0.01267  Uiso   1.00
C1508  C     0.23750   0.39984   0.39984   0.01267  Uiso   1.00
C1509  C     0.25950   0.39280   0.39280   0.01267  Uiso   1.00
C1510  C     0.28240   0.38160   0.38160   0.01267  Uiso   1.00
C1511  C     0.30450   0.37440   0.37440   0.01267  Uiso   1.00
C1512  C     0.32930   0.36330   0.36330   0.01267  Uiso   1.00
H1513  H     0.14330   0.93350   0.93350   0.01267  Uiso   1.00
C1514  C     0.16092   0.92806   0.92806   0.01267  Uiso   1.00
C1515  C     0.21210   0.91150   0.91150   0.01267  Uiso   1.00
C1516  C     0.23750   0.89984   0.89984   0.01267  Uiso   1.00
C1517  C     0.25950   0.89280   0.89280   0.01267  Uiso   1.00
C1518  C     0.28240   0.88160   0.88160   0.01267  Uiso   1.00
C1519  C     0.30450   0.87440   0.87440   0.01267  Uiso   1.00
C1520  C     0.32930   0.86330   0.86330   0.01267  Uiso   1.00
H1521  H     0.64330   0.43350   0.93350   0.01267  Uiso   1.00
C1522  C     0.66092   0.42806   0.92806   0.01267  Uiso   1.00
C1523  C     0.71210   0.41150   0.91150   0.01267  Uiso   1.00
C1524  C     0.73750   0.39984   0.89984   0.01267  Uiso   1.00
C1525  C     0.75950   0.39280   0.89280   0.01267  Uiso   1.00
C1526  C     0.78240   0.38160   0.88160   0.01267  Uiso   1.00
C1527  C     0.80450   0.37440   0.87440   0.01267  Uiso   1.00
C1528  C     0.82930   0.36330   0.86330   0.01267  Uiso   1.00
H1529  H     0.64330   0.93350   0.43350   0.01267  Uiso   1.00
C1530  C     0.66092   0.92806   0.42806   0.01267  Uiso   1.00
C1531  C     0.71210   0.91150   0.41150   0.01267  Uiso   1.00
C1532  C     0.73750   0.89984   0.39984   0.01267  Uiso   1.00
C1533  C     0.75950   0.89280   0.39280   0.01267  Uiso   1.00
C1534  C     0.78240   0.88160   0.38160   0.01267  Uiso   1.00
C1535  C     0.80450   0.87440   0.37440   0.01267  Uiso   1.00
C1536  C     0.82930   0.86330   0.36330   0.01267  Uiso   1.00
H1537  H     0.85670   0.43350   0.56650   0.01267  Uiso   1.00
C1538  C     0.83908   0.42806   0.57194   0.01267  Uiso   1.00
C1539  C     0.78790   0.41150   0.58850   0.01267  Uiso   1.00
C1540  C     0.76250   0.39984   0.60016   0.01267  Uiso   1.00
C1541  C     0.74050   0.39280   0.60720   0.01267  Uiso   1.00
C1542  C     0.71760   0.38160   0.61840   0.01267  Uiso   1.00
C1543  C     0.69550   0.37440   0.62560   0.01267  Uiso   1.00
C1544  C     0.67070   0.36330   0.63670   0.01267  Uiso   1.00
H1545  H     0.85670   0.93350   0.06650   0.01267  Uiso   1.00
C1546  C     0.83908   0.92806   0.07194   0.01267  Uiso   1.00
C1547  C     0.78790   0.91150   0.08850   0.01267  Uiso   1.00
C1548  C     0.76250   0.89984   0.10016   0.01267  Uiso   1.00
C1549  C     0.74050   0.89280   0.10720   0.01267  Uiso   1.00
C1550  C     0.71760   0.88160   0.11840   0.01267  Uiso   1.00
C1551  C     0.69550   0.87440   0.12560   0.01267  Uiso   1.00
C1552  C     0.67070   0.86330   0.13670   0.01267  Uiso   1.00
H1553  H     0.35670   0.43350   0.06650   0.01267  Uiso   1.00
C1554  C     0.33908   0.42806   0.07194   0.01267  Uiso   1.00
C1555  C     0.28790   0.41150   0.08850   0.01267  Uiso   1.00
C1556  C     0.26250   0.39984   0.10016   0.01267  Uiso   1.00
C1557  C     0.24050   0.39280   0.10720   0.01267  Uiso   1.00
C1558  C     0.21760   0.38160   0.11840   0.01267  Uiso   1.00
C1559  C     0.19550   0.37440   0.12560   0.01267  Uiso   1.00
C1560  C     0.17070   0.36330   0.13670   0.01267  Uiso   1.00
H1561  H     0.35670   0.93350   0.56650   0.01267  Uiso   1.00
C1562  C     0.33908   0.92806   0.57194   0.01267  Uiso   1.00
C1563  C     0.28790   0.91150   0.58850   0.01267  Uiso   1.00
C1564  C     0.26250   0.89984   0.60016   0.01267  Uiso   1.00
C1565  C     0.24050   0.89280   0.60720   0.01267  Uiso   1.00
C1566  C     0.21760   0.88160   0.61840   0.01267  Uiso   1.00
C1567  C     0.19550   0.87440   0.62560   0.01267  Uiso   1.00
C1568  C     0.17070   0.86330   0.63670   0.01267  Uiso   1.00
H1569  H     0.14330   0.56650   0.56650   0.01267  Uiso   1.00
C1570  C     0.16092   0.57194   0.57194   0.01267  Uiso   1.00
C1571  C     0.21210   0.58850   0.58850   0.01267  Uiso   1.00
C1572  C     0.23750   0.60016   0.60016   0.01267  Uiso   1.00
C1573  C     0.25950   0.60720   0.60720   0.01267  Uiso   1.00
C1574  C     0.28240   0.61840   0.61840   0.01267  Uiso   1.00
C1575  C     0.30450   0.62560   0.62560   0.01267  Uiso   1.00
C1576  C     0.32930   0.63670   0.63670   0.01267  Uiso   1.00
H1577  H     0.14330   0.06650   0.06650   0.01267  Uiso   1.00
C1578  C     0.16092   0.07194   0.07194   0.01267  Uiso   1.00
C1579  C     0.21210   0.08850   0.08850   0.01267  Uiso   1.00
C1580  C     0.23750   0.10016   0.10016   0.01267  Uiso   1.00
C1581  C     0.25950   0.10720   0.10720   0.01267  Uiso   1.00
C1582  C     0.28240   0.11840   0.11840   0.01267  Uiso   1.00
C1583  C     0.30450   0.12560   0.12560   0.01267  Uiso   1.00
C1584  C     0.32930   0.13670   0.13670   0.01267  Uiso   1.00
H1585  H     0.64330   0.56650   0.06650   0.01267  Uiso   1.00
C1586  C     0.66092   0.57194   0.07194   0.01267  Uiso   1.00
C1587  C     0.71210   0.58850   0.08850   0.01267  Uiso   1.00
C1588  C     0.73750   0.60016   0.10016   0.01267  Uiso   1.00
C1589  C     0.75950   0.60720   0.10720   0.01267  Uiso   1.00
C1590  C     0.78240   0.61840   0.11840   0.01267  Uiso   1.00
C1591  C     0.80450   0.62560   0.12560   0.01267  Uiso   1.00
C1592  C     0.82930   0.63670   0.13670   0.01267  Uiso   1.00
H1593  H     0.64330   0.06650   0.56650   0.01267  Uiso   1.00
C1594  C     0.66092   0.07194   0.57194   0.01267  Uiso   1.00
C1595  C     0.71210   0.08850   0.58850   0.01267  Uiso   1.00
C1596  C     0.73750   0.10016   0.60016   0.01267  Uiso   1.00
C1597  C     0.75950   0.10720   0.60720   0.01267  Uiso   1.00
C1598  C     0.78240   0.11840   0.61840   0.01267  Uiso   1.00
C1599  C     0.80450   0.12560   0.62560   0.01267  Uiso   1.00
C1600  C     0.82930   0.13670   0.63670   0.01267  Uiso   1.00
H1601  H     0.85670   0.56650   0.43350   0.01267  Uiso   1.00
C1602  C     0.83908   0.57194   0.42806   0.01267  Uiso   1.00
C1603  C     0.78790   0.58850   0.41150   0.01267  Uiso   1.00
C1604  C     0.76250   0.60016   0.39984   0.01267  Uiso   1.00
C1605  C     0.74050   0.60720   0.39280   0.01267  Uiso   1.00
C1606  C     0.71760   0.61840   0.38160   0.01267  Uiso   1.00
C1607  C     0.69550   0.62560   0.37440   0.01267  Uiso   1.00
C1608  C     0.67070   0.63670   0.36330   0.01267  Uiso   1.00
H1609  H     0.85670   0.06650   0.93350   0.01267  Uiso   1.00
C1610  C     0.83908   0.07194   0.92806   0.01267  Uiso   1.00
C1611  C     0.78790   0.08850   0.91150   0.01267  Uiso   1.00
C1612  C     0.76250   0.10016   0.89984   0.01267  Uiso   1.00
C1613  C     0.74050   0.10720   0.89280   0.01267  Uiso   1.00
C1614  C     0.71760   0.11840   0.88160   0.01267  Uiso   1.00
C1615  C     0.69550   0.12560   0.87440   0.01267  Uiso   1.00
C1616  C     0.67070   0.13670   0.86330   0.01267  Uiso   1.00
H1617  H     0.35670   0.56650   0.93350   0.01267  Uiso   1.00
C1618  C     0.33908   0.57194   0.92806   0.01267  Uiso   1.00
C1619  C     0.28790   0.58850   0.91150   0.01267  Uiso   1.00
C1620  C     0.26250   0.60016   0.89984   0.01267  Uiso   1.00
C1621  C     0.24050   0.60720   0.89280   0.01267  Uiso   1.00
C1622  C     0.21760   0.61840   0.88160   0.01267  Uiso   1.00
C1623  C     0.19550   0.62560   0.87440   0.01267  Uiso   1.00
C1624  C     0.17070   0.63670   0.86330   0.01267  Uiso   1.00
H1625  H     0.35670   0.06650   0.43350   0.01267  Uiso   1.00
C1626  C     0.33908   0.07194   0.42806   0.01267  Uiso   1.00
C1627  C     0.28790   0.08850   0.41150   0.01267  Uiso   1.00
C1628  C     0.26250   0.10016   0.39984   0.01267  Uiso   1.00
C1629  C     0.24050   0.10720   0.39280   0.01267  Uiso   1.00
C1630  C     0.21760   0.11840   0.38160   0.01267  Uiso   1.00
C1631  C     0.19550   0.12560   0.37440   0.01267  Uiso   1.00
C1632  C     0.17070   0.13670   0.36330   0.01267  Uiso   1.00
H1633  H     0.14330   0.43350   0.56650   0.01267  Uiso   1.00
C1634  C     0.16092   0.42806   0.57194   0.01267  Uiso   1.00
C1635  C     0.21210   0.41150   0.58850   0.01267  Uiso   1.00
C1636  C     0.23750   0.39984   0.60016   0.01267  Uiso   1.00
C1637  C     0.25950   0.39280   0.60720   0.01267  Uiso   1.00
C1638  C     0.28240   0.38160   0.61840   0.01267  Uiso   1.00
C1639  C     0.30450   0.37440   0.62560   0.01267  Uiso   1.00
C1640  C     0.32930   0.36330   0.63670   0.01267  Uiso   1.00
H1641  H     0.14330   0.93350   0.06650   0.01267  Uiso   1.00
C1642  C     0.16092   0.92806   0.07194   0.01267  Uiso   1.00
C1643  C     0.21210   0.91150   0.08850   0.01267  Uiso   1.00
C1644  C     0.23750   0.89984   0.10016   0.01267  Uiso   1.00
C1645  C     0.25950   0.89280   0.10720   0.01267  Uiso   1.00
C1646  C     0.28240   0.88160   0.11840   0.01267  Uiso   1.00
C1647  C     0.30450   0.87440   0.12560   0.01267  Uiso   1.00
C1648  C     0.32930   0.86330   0.13670   0.01267  Uiso   1.00
H1649  H     0.64330   0.43350   0.06650   0.01267  Uiso   1.00
C1650  C     0.66092   0.42806   0.07194   0.01267  Uiso   1.00
C1651  C     0.71210   0.41150   0.08850   0.01267  Uiso   1.00
C1652  C     0.73750   0.39984   0.10016   0.01267  Uiso   1.00
C1653  C     0.75950   0.39280   0.10720   0.01267  Uiso   1.00
C1654  C     0.78240   0.38160   0.11840   0.01267  Uiso   1.00
C1655  C     0.80450   0.37440   0.12560   0.01267  Uiso   1.00
C1656  C     0.82930   0.36330   0.13670   0.01267  Uiso   1.00
H1657  H     0.64330   0.93350   0.56650   0.01267  Uiso   1.00
C1658  C     0.66092   0.92806   0.57194   0.01267  Uiso   1.00
C1659  C     0.71210   0.91150   0.58850   0.01267  Uiso   1.00
C1660  C     0.73750   0.89984   0.60016   0.01267  Uiso   1.00
C1661  C     0.75950   0.89280   0.60720   0.01267  Uiso   1.00
C1662  C     0.78240   0.88160   0.61840   0.01267  Uiso   1.00
C1663  C     0.80450   0.87440   0.62560   0.01267  Uiso   1.00
C1664  C     0.82930   0.86330   0.63670   0.01267  Uiso   1.00
H1665  H     0.85670   0.56650   0.56650   0.01267  Uiso   1.00
C1666  C     0.83908   0.57194   0.57194   0.01267  Uiso   1.00
C1667  C     0.78790   0.58850   0.58850   0.01267  Uiso   1.00
C1668  C     0.76250   0.60016   0.60016   0.01267  Uiso   1.00
C1669  C     0.74050   0.60720   0.60720   0.01267  Uiso   1.00
C1670  C     0.71760   0.61840   0.61840   0.01267  Uiso   1.00
C1671  C     0.69550   0.62560   0.62560   0.01267  Uiso   1.00
C1672  C     0.67070   0.63670   0.63670   0.01267  Uiso   1.00
H1673  H     0.85670   0.06650   0.06650   0.01267  Uiso   1.00
C1674  C     0.83908   0.07194   0.07194   0.01267  Uiso   1.00
C1675  C     0.78790   0.08850   0.08850   0.01267  Uiso   1.00
C1676  C     0.76250   0.10016   0.10016   0.01267  Uiso   1.00
C1677  C     0.74050   0.10720   0.10720   0.01267  Uiso   1.00
C1678  C     0.71760   0.11840   0.11840   0.01267  Uiso   1.00
C1679  C     0.69550   0.12560   0.12560   0.01267  Uiso   1.00
C1680  C     0.67070   0.13670   0.13670   0.01267  Uiso   1.00
H1681  H     0.35670   0.56650   0.06650   0.01267  Uiso   1.00
C1682  C     0.33908   0.57194   0.07194   0.01267  Uiso   1.00
C1683  C     0.28790   0.58850   0.08850   0.01267  Uiso   1.00
C1684  C     0.26250   0.60016   0.10016   0.01267  Uiso   1.00
C1685  C     0.24050   0.60720   0.10720   0.01267  Uiso   1.00
C1686  C     0.21760   0.61840   0.11840   0.01267  Uiso   1.00
C1687  C     0.19550   0.62560   0.12560   0.01267  Uiso   1.00
C1688  C     0.17070   0.63670   0.13670   0.01267  Uiso   1.00
H1689  H     0.35670   0.06650   0.56650   0.01267  Uiso   1.00
C1690  C     0.33908   0.07194   0.57194   0.01267  Uiso   1.00
C1691  C     0.28790   0.08850   0.58850   0.01267  Uiso   1.00
C1692  C     0.26250   0.10016   0.60016   0.01267  Uiso   1.00
C1693  C     0.24050   0.10720   0.60720   0.01267  Uiso   1.00
C1694  C     0.21760   0.11840   0.61840   0.01267  Uiso   1.00
C1695  C     0.19550   0.12560   0.62560   0.01267  Uiso   1.00
C1696  C     0.17070   0.13670   0.63670   0.01267  Uiso   1.00
H1697  H     0.14330   0.56650   0.43350   0.01267  Uiso   1.00
C1698  C     0.16092   0.57194   0.42806   0.01267  Uiso   1.00
C1699  C     0.21210   0.58850   0.41150   0.01267  Uiso   1.00
C1700  C     0.23750   0.60016   0.39984   0.01267  Uiso   1.00
C1701  C     0.25950   0.60720   0.39280   0.01267  Uiso   1.00
C1702  C     0.28240   0.61840   0.38160   0.01267  Uiso   1.00
C1703  C     0.30450   0.62560   0.37440   0.01267  Uiso   1.00
C1704  C     0.32930   0.63670   0.36330   0.01267  Uiso   1.00
H1705  H     0.14330   0.06650   0.93350   0.01267  Uiso   1.00
C1706  C     0.16092   0.07194   0.92806   0.01267  Uiso   1.00
C1707  C     0.21210   0.08850   0.91150   0.01267  Uiso   1.00
C1708  C     0.23750   0.10016   0.89984   0.01267  Uiso   1.00
C1709  C     0.25950   0.10720   0.89280   0.01267  Uiso   1.00
C1710  C     0.28240   0.11840   0.88160   0.01267  Uiso   1.00
C1711  C     0.30450   0.12560   0.87440   0.01267  Uiso   1.00
C1712  C     0.32930   0.13670   0.86330   0.01267  Uiso   1.00
H1713  H     0.64330   0.56650   0.93350   0.01267  Uiso   1.00
C1714  C     0.66092   0.57194   0.92806   0.01267  Uiso   1.00
C1715  C     0.71210   0.58850   0.91150   0.01267  Uiso   1.00
C1716  C     0.73750   0.60016   0.89984   0.01267  Uiso   1.00
C1717  C     0.75950   0.60720   0.89280   0.01267  Uiso   1.00
C1718  C     0.78240   0.61840   0.88160   0.01267  Uiso   1.00
C1719  C     0.80450   0.62560   0.87440   0.01267  Uiso   1.00
C1720  C     0.82930   0.63670   0.86330   0.01267  Uiso   1.00
H1721  H     0.64330   0.06650   0.43350   0.01267  Uiso   1.00
C1722  C     0.66092   0.07194   0.42806   0.01267  Uiso   1.00
C1723  C     0.71210   0.08850   0.41150   0.01267  Uiso   1.00
C1724  C     0.73750   0.10016   0.39984   0.01267  Uiso   1.00
C1725  C     0.75950   0.10720   0.39280   0.01267  Uiso   1.00
C1726  C     0.78240   0.11840   0.38160   0.01267  Uiso   1.00
C1727  C     0.80450   0.12560   0.37440   0.01267  Uiso   1.00
C1728  C     0.82930   0.13670   0.36330   0.01267  Uiso   1.00
H1729  H     0.85670   0.43350   0.43350   0.01267  Uiso   1.00
C1730  C     0.83908   0.42806   0.42806   0.01267  Uiso   1.00
C1731  C     0.78790   0.41150   0.41150   0.01267  Uiso   1.00
C1732  C     0.76250   0.39984   0.39984   0.01267  Uiso   1.00
C1733  C     0.74050   0.39280   0.39280   0.01267  Uiso   1.00
C1734  C     0.71760   0.38160   0.38160   0.01267  Uiso   1.00
C1735  C     0.69550   0.37440   0.37440   0.01267  Uiso   1.00
C1736  C     0.67070   0.36330   0.36330   0.01267  Uiso   1.00
H1737  H     0.85670   0.93350   0.93350   0.01267  Uiso   1.00
C1738  C     0.83908   0.92806   0.92806   0.01267  Uiso   1.00
C1739  C     0.78790   0.91150   0.91150   0.01267  Uiso   1.00
C1740  C     0.76250   0.89984   0.89984   0.01267  Uiso   1.00
C1741  C     0.74050   0.89280   0.89280   0.01267  Uiso   1.00
C1742  C     0.71760   0.88160   0.88160   0.01267  Uiso   1.00
C1743  C     0.69550   0.87440   0.87440   0.01267  Uiso   1.00
C1744  C     0.67070   0.86330   0.86330   0.01267  Uiso   1.00
H1745  H     0.35670   0.43350   0.93350   0.01267  Uiso   1.00
C1746  C     0.33908   0.42806   0.92806   0.01267  Uiso   1.00
C1747  C     0.28790   0.41150   0.91150   0.01267  Uiso   1.00
C1748  C     0.26250   0.39984   0.89984   0.01267  Uiso   1.00
C1749  C     0.24050   0.39280   0.89280   0.01267  Uiso   1.00
C1750  C     0.21760   0.38160   0.88160   0.01267  Uiso   1.00
C1751  C     0.19550   0.37440   0.87440   0.01267  Uiso   1.00
C1752  C     0.17070   0.36330   0.86330   0.01267  Uiso   1.00
H1753  H     0.35670   0.93350   0.43350   0.01267  Uiso   1.00
C1754  C     0.33908   0.92806   0.42806   0.01267  Uiso   1.00
C1755  C     0.28790   0.91150   0.41150   0.01267  Uiso   1.00
C1756  C     0.26250   0.89984   0.39984   0.01267  Uiso   1.00
C1757  C     0.24050   0.89280   0.39280   0.01267  Uiso   1.00
C1758  C     0.21760   0.88160   0.38160   0.01267  Uiso   1.00
C1759  C     0.19550   0.87440   0.37440   0.01267  Uiso   1.00
C1760  C     0.17070   0.86330   0.36330   0.01267  Uiso   1.00
H1761  H     0.43350   0.43350   0.85670   0.01267  Uiso   1.00
C1762  C     0.42806   0.42806   0.83908   0.01267  Uiso   1.00
C1763  C     0.41150   0.41150   0.78790   0.01267  Uiso   1.00
C1764  C     0.39984   0.39984   0.76250   0.01267  Uiso   1.00
C1765  C     0.39280   0.39280   0.74050   0.01267  Uiso   1.00
C1766  C     0.38160   0.38160   0.71760   0.01267  Uiso   1.00
C1767  C     0.37440   0.37440   0.69550   0.01267  Uiso   1.00
C1768  C     0.36330   0.36330   0.67070   0.01267  Uiso   1.00
H1769  H     0.43350   0.93350   0.35670   0.01267  Uiso   1.00
C1770  C     0.42806   0.92806   0.33908   0.01267  Uiso   1.00
C1771  C     0.41150   0.91150   0.28790   0.01267  Uiso   1.00
C1772  C     0.39984   0.89984   0.26250   0.01267  Uiso   1.00
C1773  C     0.39280   0.89280   0.24050   0.01267  Uiso   1.00
C1774  C     0.38160   0.88160   0.21760   0.01267  Uiso   1.00
C1775  C     0.37440   0.87440   0.19550   0.01267  Uiso   1.00
C1776  C     0.36330   0.86330   0.17070   0.01267  Uiso   1.00
H1777  H     0.93350   0.43350   0.35670   0.01267  Uiso   1.00
C1778  C     0.92806   0.42806   0.33908   0.01267  Uiso   1.00
C1779  C     0.91150   0.41150   0.28790   0.01267  Uiso   1.00
C1780  C     0.89984   0.39984   0.26250   0.01267  Uiso   1.00
C1781  C     0.89280   0.39280   0.24050   0.01267  Uiso   1.00
C1782  C     0.88160   0.38160   0.21760   0.01267  Uiso   1.00
C1783  C     0.87440   0.37440   0.19550   0.01267  Uiso   1.00
C1784  C     0.86330   0.36330   0.17070   0.01267  Uiso   1.00
H1785  H     0.93350   0.93350   0.85670   0.01267  Uiso   1.00
C1786  C     0.92806   0.92806   0.83908   0.01267  Uiso   1.00
C1787  C     0.91150   0.91150   0.78790   0.01267  Uiso   1.00
C1788  C     0.89984   0.89984   0.76250   0.01267  Uiso   1.00
C1789  C     0.89280   0.89280   0.74050   0.01267  Uiso   1.00
C1790  C     0.88160   0.88160   0.71760   0.01267  Uiso   1.00
C1791  C     0.87440   0.87440   0.69550   0.01267  Uiso   1.00
C1792  C     0.86330   0.86330   0.67070   0.01267  Uiso   1.00
H1793  H     0.56650   0.43350   0.14330   0.01267  Uiso   1.00
C1794  C     0.57194   0.42806   0.16092   0.01267  Uiso   1.00
C1795  C     0.58850   0.41150   0.21210   0.01267  Uiso   1.00
C1796  C     0.60016   0.39984   0.23750   0.01267  Uiso   1.00
C1797  C     0.60720   0.39280   0.25950   0.01267  Uiso   1.00
C1798  C     0.61840   0.38160   0.28240   0.01267  Uiso   1.00
C1799  C     0.62560   0.37440   0.30450   0.01267  Uiso   1.00
C1800  C     0.63670   0.36330   0.32930   0.01267  Uiso   1.00
H1801  H     0.56650   0.93350   0.64330   0.01267  Uiso   1.00
C1802  C     0.57194   0.92806   0.66092   0.01267  Uiso   1.00
C1803  C     0.58850   0.91150   0.71210   0.01267  Uiso   1.00
C1804  C     0.60016   0.89984   0.73750   0.01267  Uiso   1.00
C1805  C     0.60720   0.89280   0.75950   0.01267  Uiso   1.00
C1806  C     0.61840   0.88160   0.78240   0.01267  Uiso   1.00
C1807  C     0.62560   0.87440   0.80450   0.01267  Uiso   1.00
C1808  C     0.63670   0.86330   0.82930   0.01267  Uiso   1.00
H1809  H     0.06650   0.43350   0.64330   0.01267  Uiso   1.00
C1810  C     0.07194   0.42806   0.66092   0.01267  Uiso   1.00
C1811  C     0.08850   0.41150   0.71210   0.01267  Uiso   1.00
C1812  C     0.10016   0.39984   0.73750   0.01267  Uiso   1.00
C1813  C     0.10720   0.39280   0.75950   0.01267  Uiso   1.00
C1814  C     0.11840   0.38160   0.78240   0.01267  Uiso   1.00
C1815  C     0.12560   0.37440   0.80450   0.01267  Uiso   1.00
C1816  C     0.13670   0.36330   0.82930   0.01267  Uiso   1.00
H1817  H     0.06650   0.93350   0.14330   0.01267  Uiso   1.00
C1818  C     0.07194   0.92806   0.16092   0.01267  Uiso   1.00
C1819  C     0.08850   0.91150   0.21210   0.01267  Uiso   1.00
C1820  C     0.10016   0.89984   0.23750   0.01267  Uiso   1.00
C1821  C     0.10720   0.89280   0.25950   0.01267  Uiso   1.00
C1822  C     0.11840   0.88160   0.28240   0.01267  Uiso   1.00
C1823  C     0.12560   0.87440   0.30450   0.01267  Uiso   1.00
C1824  C     0.13670   0.86330   0.32930   0.01267  Uiso   1.00
H1825  H     0.56650   0.56650   0.85670   0.01267  Uiso   1.00
C1826  C     0.57194   0.57194   0.83908   0.01267  Uiso   1.00
C1827  C     0.58850   0.58850   0.78790   0.01267  Uiso   1.00
C1828  C     0.60016   0.60016   0.76250   0.01267  Uiso   1.00
C1829  C     0.60720   0.60720   0.74050   0.01267  Uiso   1.00
C1830  C     0.61840   0.61840   0.71760   0.01267  Uiso   1.00
C1831  C     0.62560   0.62560   0.69550   0.01267  Uiso   1.00
C1832  C     0.63670   0.63670   0.67070   0.01267  Uiso   1.00
H1833  H     0.56650   0.06650   0.35670   0.01267  Uiso   1.00
C1834  C     0.57194   0.07194   0.33908   0.01267  Uiso   1.00
C1835  C     0.58850   0.08850   0.28790   0.01267  Uiso   1.00
C1836  C     0.60016   0.10016   0.26250   0.01267  Uiso   1.00
C1837  C     0.60720   0.10720   0.24050   0.01267  Uiso   1.00
C1838  C     0.61840   0.11840   0.21760   0.01267  Uiso   1.00
C1839  C     0.62560   0.12560   0.19550   0.01267  Uiso   1.00
C1840  C     0.63670   0.13670   0.17070   0.01267  Uiso   1.00
H1841  H     0.06650   0.56650   0.35670   0.01267  Uiso   1.00
C1842  C     0.07194   0.57194   0.33908   0.01267  Uiso   1.00
C1843  C     0.08850   0.58850   0.28790   0.01267  Uiso   1.00
C1844  C     0.10016   0.60016   0.26250   0.01267  Uiso   1.00
C1845  C     0.10720   0.60720   0.24050   0.01267  Uiso   1.00
C1846  C     0.11840   0.61840   0.21760   0.01267  Uiso   1.00
C1847  C     0.12560   0.62560   0.19550   0.01267  Uiso   1.00
C1848  C     0.13670   0.63670   0.17070   0.01267  Uiso   1.00
H1849  H     0.06650   0.06650   0.85670   0.01267  Uiso   1.00
C1850  C     0.07194   0.07194   0.83908   0.01267  Uiso   1.00
C1851  C     0.08850   0.08850   0.78790   0.01267  Uiso   1.00
C1852  C     0.10016   0.10016   0.76250   0.01267  Uiso   1.00
C1853  C     0.10720   0.10720   0.74050   0.01267  Uiso   1.00
C1854  C     0.11840   0.11840   0.71760   0.01267  Uiso   1.00
C1855  C     0.12560   0.12560   0.69550   0.01267  Uiso   1.00
C1856  C     0.13670   0.13670   0.67070   0.01267  Uiso   1.00
H1857  H     0.43350   0.56650   0.14330   0.01267  Uiso   1.00
C1858  C     0.42806   0.57194   0.16092   0.01267  Uiso   1.00
C1859  C     0.41150   0.58850   0.21210   0.01267  Uiso   1.00
C1860  C     0.39984   0.60016   0.23750   0.01267  Uiso   1.00
C1861  C     0.39280   0.60720   0.25950   0.01267  Uiso   1.00
C1862  C     0.38160   0.61840   0.28240   0.01267  Uiso   1.00
C1863  C     0.37440   0.62560   0.30450   0.01267  Uiso   1.00
C1864  C     0.36330   0.63670   0.32930   0.01267  Uiso   1.00
H1865  H     0.43350   0.06650   0.64330   0.01267  Uiso   1.00
C1866  C     0.42806   0.07194   0.66092   0.01267  Uiso   1.00
C1867  C     0.41150   0.08850   0.71210   0.01267  Uiso   1.00
C1868  C     0.39984   0.10016   0.73750   0.01267  Uiso   1.00
C1869  C     0.39280   0.10720   0.75950   0.01267  Uiso   1.00
C1870  C     0.38160   0.11840   0.78240   0.01267  Uiso   1.00
C1871  C     0.37440   0.12560   0.80450   0.01267  Uiso   1.00
C1872  C     0.36330   0.13670   0.82930   0.01267  Uiso   1.00
H1873  H     0.93350   0.56650   0.64330   0.01267  Uiso   1.00
C1874  C     0.92806   0.57194   0.66092   0.01267  Uiso   1.00
C1875  C     0.91150   0.58850   0.71210   0.01267  Uiso   1.00
C1876  C     0.89984   0.60016   0.73750   0.01267  Uiso   1.00
C1877  C     0.89280   0.60720   0.75950   0.01267  Uiso   1.00
C1878  C     0.88160   0.61840   0.78240   0.01267  Uiso   1.00
C1879  C     0.87440   0.62560   0.80450   0.01267  Uiso   1.00
C1880  C     0.86330   0.63670   0.82930   0.01267  Uiso   1.00
H1881  H     0.93350   0.06650   0.14330   0.01267  Uiso   1.00
C1882  C     0.92806   0.07194   0.16092   0.01267  Uiso   1.00
C1883  C     0.91150   0.08850   0.21210   0.01267  Uiso   1.00
C1884  C     0.89984   0.10016   0.23750   0.01267  Uiso   1.00
C1885  C     0.89280   0.10720   0.25950   0.01267  Uiso   1.00
C1886  C     0.88160   0.11840   0.28240   0.01267  Uiso   1.00
C1887  C     0.87440   0.12560   0.30450   0.01267  Uiso   1.00
C1888  C     0.86330   0.13670   0.32930   0.01267  Uiso   1.00
H1889  H     0.43350   0.14330   0.56650   0.01267  Uiso   1.00
C1890  C     0.42806   0.16092   0.57194   0.01267  Uiso   1.00
C1891  C     0.41150   0.21210   0.58850   0.01267  Uiso   1.00
C1892  C     0.39984   0.23750   0.60016   0.01267  Uiso   1.00
C1893  C     0.39280   0.25950   0.60720   0.01267  Uiso   1.00
C1894  C     0.38160   0.28240   0.61840   0.01267  Uiso   1.00
C1895  C     0.37440   0.30450   0.62560   0.01267  Uiso   1.00
C1896  C     0.36330   0.32930   0.63670   0.01267  Uiso   1.00
H1897  H     0.43350   0.64330   0.06650   0.01267  Uiso   1.00
C1898  C     0.42806   0.66092   0.07194   0.01267  Uiso   1.00
C1899  C     0.41150   0.71210   0.08850   0.01267  Uiso   1.00
C1900  C     0.39984   0.73750   0.10016   0.01267  Uiso   1.00
C1901  C     0.39280   0.75950   0.10720   0.01267  Uiso   1.00
C1902  C     0.38160   0.78240   0.11840   0.01267  Uiso   1.00
C1903  C     0.37440   0.80450   0.12560   0.01267  Uiso   1.00
C1904  C     0.36330   0.82930   0.13670   0.01267  Uiso   1.00
H1905  H     0.93350   0.14330   0.06650   0.01267  Uiso   1.00
C1906  C     0.92806   0.16092   0.07194   0.01267  Uiso   1.00
C1907  C     0.91150   0.21210   0.08850   0.01267  Uiso   1.00
C1908  C     0.89984   0.23750   0.10016   0.01267  Uiso   1.00
C1909  C     0.89280   0.25950   0.10720   0.01267  Uiso   1.00
C1910  C     0.88160   0.28240   0.11840   0.01267  Uiso   1.00
C1911  C     0.87440   0.30450   0.12560   0.01267  Uiso   1.00
C1912  C     0.86330   0.32930   0.13670   0.01267  Uiso   1.00
H1913  H     0.93350   0.64330   0.56650   0.01267  Uiso   1.00
C1914  C     0.92806   0.66092   0.57194   0.01267  Uiso   1.00
C1915  C     0.91150   0.71210   0.58850   0.01267  Uiso   1.00
C1916  C     0.89984   0.73750   0.60016   0.01267  Uiso   1.00
C1917  C     0.89280   0.75950   0.60720   0.01267  Uiso   1.00
C1918  C     0.88160   0.78240   0.61840   0.01267  Uiso   1.00
C1919  C     0.87440   0.80450   0.62560   0.01267  Uiso   1.00
C1920  C     0.86330   0.82930   0.63670   0.01267  Uiso   1.00
H1921  H     0.43350   0.85670   0.43350   0.01267  Uiso   1.00
C1922  C     0.42806   0.83908   0.42806   0.01267  Uiso   1.00
C1923  C     0.41150   0.78790   0.41150   0.01267  Uiso   1.00
C1924  C     0.39984   0.76250   0.39984   0.01267  Uiso   1.00
C1925  C     0.39280   0.74050   0.39280   0.01267  Uiso   1.00
C1926  C     0.38160   0.71760   0.38160   0.01267  Uiso   1.00
C1927  C     0.37440   0.69550   0.37440   0.01267  Uiso   1.00
C1928  C     0.36330   0.67070   0.36330   0.01267  Uiso   1.00
H1929  H     0.43350   0.35670   0.93350   0.01267  Uiso   1.00
C1930  C     0.42806   0.33908   0.92806   0.01267  Uiso   1.00
C1931  C     0.41150   0.28790   0.91150   0.01267  Uiso   1.00
C1932  C     0.39984   0.26250   0.89984   0.01267  Uiso   1.00
C1933  C     0.39280   0.24050   0.89280   0.01267  Uiso   1.00
C1934  C     0.38160   0.21760   0.88160   0.01267  Uiso   1.00
C1935  C     0.37440   0.19550   0.87440   0.01267  Uiso   1.00
C1936  C     0.36330   0.17070   0.86330   0.01267  Uiso   1.00
H1937  H     0.93350   0.85670   0.93350   0.01267  Uiso   1.00
C1938  C     0.92806   0.83908   0.92806   0.01267  Uiso   1.00
C1939  C     0.91150   0.78790   0.91150   0.01267  Uiso   1.00
C1940  C     0.89984   0.76250   0.89984   0.01267  Uiso   1.00
C1941  C     0.89280   0.74050   0.89280   0.01267  Uiso   1.00
C1942  C     0.88160   0.71760   0.88160   0.01267  Uiso   1.00
C1943  C     0.87440   0.69550   0.87440   0.01267  Uiso   1.00
C1944  C     0.86330   0.67070   0.86330   0.01267  Uiso   1.00
H1945  H     0.93350   0.35670   0.43350   0.01267  Uiso   1.00
C1946  C     0.92806   0.33908   0.42806   0.01267  Uiso   1.00
C1947  C     0.91150   0.28790   0.41150   0.01267  Uiso   1.00
C1948  C     0.89984   0.26250   0.39984   0.01267  Uiso   1.00
C1949  C     0.89280   0.24050   0.39280   0.01267  Uiso   1.00
C1950  C     0.88160   0.21760   0.38160   0.01267  Uiso   1.00
C1951  C     0.87440   0.19550   0.37440   0.01267  Uiso   1.00
C1952  C     0.86330   0.17070   0.36330   0.01267  Uiso   1.00
H1953  H     0.56650   0.14330   0.43350   0.01267  Uiso   1.00
C1954  C     0.57194   0.16092   0.42806   0.01267  Uiso   1.00
C1955  C     0.58850   0.21210   0.41150   0.01267  Uiso   1.00
C1956  C     0.60016   0.23750   0.39984   0.01267  Uiso   1.00
C1957  C     0.60720   0.25950   0.39280   0.01267  Uiso   1.00
C1958  C     0.61840   0.28240   0.38160   0.01267  Uiso   1.00
C1959  C     0.62560   0.30450   0.37440   0.01267  Uiso   1.00
C1960  C     0.63670   0.32930   0.36330   0.01267  Uiso   1.00
H1961  H     0.56650   0.64330   0.93350   0.01267  Uiso   1.00
C1962  C     0.57194   0.66092   0.92806   0.01267  Uiso   1.00
C1963  C     0.58850   0.71210   0.91150   0.01267  Uiso   1.00
C1964  C     0.60016   0.73750   0.89984   0.01267  Uiso   1.00
C1965  C     0.60720   0.75950   0.89280   0.01267  Uiso   1.00
C1966  C     0.61840   0.78240   0.88160   0.01267  Uiso   1.00
C1967  C     0.62560   0.80450   0.87440   0.01267  Uiso   1.00
C1968  C     0.63670   0.82930   0.86330   0.01267  Uiso   1.00
H1969  H     0.06650   0.14330   0.93350   0.01267  Uiso   1.00
C1970  C     0.07194   0.16092   0.92806   0.01267  Uiso   1.00
C1971  C     0.08850   0.21210   0.91150   0.01267  Uiso   1.00
C1972  C     0.10016   0.23750   0.89984   0.01267  Uiso   1.00
C1973  C     0.10720   0.25950   0.89280   0.01267  Uiso   1.00
C1974  C     0.11840   0.28240   0.88160   0.01267  Uiso   1.00
C1975  C     0.12560   0.30450   0.87440   0.01267  Uiso   1.00
C1976  C     0.13670   0.32930   0.86330   0.01267  Uiso   1.00
H1977  H     0.06650   0.64330   0.43350   0.01267  Uiso   1.00
C1978  C     0.07194   0.66092   0.42806   0.01267  Uiso   1.00
C1979  C     0.08850   0.71210   0.41150   0.01267  Uiso   1.00
C1980  C     0.10016   0.73750   0.39984   0.01267  Uiso   1.00
C1981  C     0.10720   0.75950   0.39280   0.01267  Uiso   1.00
C1982  C     0.11840   0.78240   0.38160   0.01267  Uiso   1.00
C1983  C     0.12560   0.80450   0.37440   0.01267  Uiso   1.00
C1984  C     0.13670   0.82930   0.36330   0.01267  Uiso   1.00
H1985  H     0.56650   0.85670   0.56650   0.01267  Uiso   1.00
C1986  C     0.57194   0.83908   0.57194   0.01267  Uiso   1.00
C1987  C     0.58850   0.78790   0.58850   0.01267  Uiso   1.00
C1988  C     0.60016   0.76250   0.60016   0.01267  Uiso   1.00
C1989  C     0.60720   0.74050   0.60720   0.01267  Uiso   1.00
C1990  C     0.61840   0.71760   0.61840   0.01267  Uiso   1.00
C1991  C     0.62560   0.69550   0.62560   0.01267  Uiso   1.00
C1992  C     0.63670   0.67070   0.63670   0.01267  Uiso   1.00
H1993  H     0.56650   0.35670   0.06650   0.01267  Uiso   1.00
C1994  C     0.57194   0.33908   0.07194   0.01267  Uiso   1.00
C1995  C     0.58850   0.28790   0.08850   0.01267  Uiso   1.00
C1996  C     0.60016   0.26250   0.10016   0.01267  Uiso   1.00
C1997  C     0.60720   0.24050   0.10720   0.01267  Uiso   1.00
C1998  C     0.61840   0.21760   0.11840   0.01267  Uiso   1.00
C1999  C     0.62560   0.19550   0.12560   0.01267  Uiso   1.00
C2000  C     0.63670   0.17070   0.13670   0.01267  Uiso   1.00
H2001  H     0.06650   0.85670   0.06650   0.01267  Uiso   1.00
C2002  C     0.07194   0.83908   0.07194   0.01267  Uiso   1.00
C2003  C     0.08850   0.78790   0.08850   0.01267  Uiso   1.00
C2004  C     0.10016   0.76250   0.10016   0.01267  Uiso   1.00
C2005  C     0.10720   0.74050   0.10720   0.01267  Uiso   1.00
C2006  C     0.11840   0.71760   0.11840   0.01267  Uiso   1.00
C2007  C     0.12560   0.69550   0.12560   0.01267  Uiso   1.00
C2008  C     0.13670   0.67070   0.13670   0.01267  Uiso   1.00
H2009  H     0.06650   0.35670   0.56650   0.01267  Uiso   1.00
C2010  C     0.07194   0.33908   0.57194   0.01267  Uiso   1.00
C2011  C     0.08850   0.28790   0.58850   0.01267  Uiso   1.00
C2012  C     0.10016   0.26250   0.60016   0.01267  Uiso   1.00
C2013  C     0.10720   0.24050   0.60720   0.01267  Uiso   1.00
C2014  C     0.11840   0.21760   0.61840   0.01267  Uiso   1.00
C2015  C     0.12560   0.19550   0.62560   0.01267  Uiso   1.00
C2016  C     0.13670   0.17070   0.63670   0.01267  Uiso   1.00
H2017  H     0.38840   0.33030   0.33030   0.01267  Uiso   1.00
C2018  C     0.37410   0.33940   0.33940   0.01267  Uiso   1.00
H2019  H     0.38840   0.83030   0.83030   0.01267  Uiso   1.00
C2020  C     0.37410   0.83940   0.83940   0.01267  Uiso   1.00
H2021  H     0.88840   0.33030   0.83030   0.01267  Uiso   1.00
C2022  C     0.87410   0.33940   0.83940   0.01267  Uiso   1.00
H2023  H     0.88840   0.83030   0.33030   0.01267  Uiso   1.00
C2024  C     0.87410   0.83940   0.33940   0.01267  Uiso   1.00
H2025  H     0.61160   0.66970   0.33030   0.01267  Uiso   1.00
C2026  C     0.62590   0.66060   0.33940   0.01267  Uiso   1.00
H2027  H     0.61160   0.16970   0.83030   0.01267  Uiso   1.00
C2028  C     0.62590   0.16060   0.83940   0.01267  Uiso   1.00
H2029  H     0.11160   0.66970   0.83030   0.01267  Uiso   1.00
C2030  C     0.12590   0.66060   0.83940   0.01267  Uiso   1.00
H2031  H     0.11160   0.16970   0.33030   0.01267  Uiso   1.00
C2032  C     0.12590   0.16060   0.33940   0.01267  Uiso   1.00
H2033  H     0.61160   0.33030   0.66970   0.01267  Uiso   1.00
C2034  C     0.62590   0.33940   0.66060   0.01267  Uiso   1.00
H2035  H     0.61160   0.83030   0.16970   0.01267  Uiso   1.00
C2036  C     0.62590   0.83940   0.16060   0.01267  Uiso   1.00
H2037  H     0.11160   0.33030   0.16970   0.01267  Uiso   1.00
C2038  C     0.12590   0.33940   0.16060   0.01267  Uiso   1.00
H2039  H     0.11160   0.83030   0.66970   0.01267  Uiso   1.00
C2040  C     0.12590   0.83940   0.66060   0.01267  Uiso   1.00
H2041  H     0.38840   0.66970   0.66970   0.01267  Uiso   1.00
C2042  C     0.37410   0.66060   0.66060   0.01267  Uiso   1.00
H2043  H     0.38840   0.16970   0.16970   0.01267  Uiso   1.00
C2044  C     0.37410   0.16060   0.16060   0.01267  Uiso   1.00
H2045  H     0.88840   0.66970   0.16970   0.01267  Uiso   1.00
C2046  C     0.87410   0.66060   0.16060   0.01267  Uiso   1.00
H2047  H     0.88840   0.16970   0.66970   0.01267  Uiso   1.00
C2048  C     0.87410   0.16060   0.66060   0.01267  Uiso   1.00
H2049  H     0.33030   0.38840   0.33030   0.01267  Uiso   1.00
C2050  C     0.33940   0.37410   0.33940   0.01267  Uiso   1.00
H2051  H     0.33030   0.88840   0.83030   0.01267  Uiso   1.00
C2052  C     0.33940   0.87410   0.83940   0.01267  Uiso   1.00
H2053  H     0.83030   0.38840   0.83030   0.01267  Uiso   1.00
C2054  C     0.83940   0.37410   0.83940   0.01267  Uiso   1.00
H2055  H     0.83030   0.88840   0.33030   0.01267  Uiso   1.00
C2056  C     0.83940   0.87410   0.33940   0.01267  Uiso   1.00
H2057  H     0.33030   0.61160   0.66970   0.01267  Uiso   1.00
C2058  C     0.33940   0.62590   0.66060   0.01267  Uiso   1.00
H2059  H     0.33030   0.11160   0.16970   0.01267  Uiso   1.00
C2060  C     0.33940   0.12590   0.16060   0.01267  Uiso   1.00
H2061  H     0.83030   0.61160   0.16970   0.01267  Uiso   1.00
C2062  C     0.83940   0.62590   0.16060   0.01267  Uiso   1.00
H2063  H     0.83030   0.11160   0.66970   0.01267  Uiso   1.00
C2064  C     0.83940   0.12590   0.66060   0.01267  Uiso   1.00
H2065  H     0.66970   0.61160   0.33030   0.01267  Uiso   1.00
C2066  C     0.66060   0.62590   0.33940   0.01267  Uiso   1.00
H2067  H     0.66970   0.11160   0.83030   0.01267  Uiso   1.00
C2068  C     0.66060   0.12590   0.83940   0.01267  Uiso   1.00
H2069  H     0.16970   0.61160   0.83030   0.01267  Uiso   1.00
C2070  C     0.16060   0.62590   0.83940   0.01267  Uiso   1.00
H2071  H     0.16970   0.11160   0.33030   0.01267  Uiso   1.00
C2072  C     0.16060   0.12590   0.33940   0.01267  Uiso   1.00
H2073  H     0.66970   0.38840   0.66970   0.01267  Uiso   1.00
C2074  C     0.66060   0.37410   0.66060   0.01267  Uiso   1.00
H2075  H     0.66970   0.88840   0.16970   0.01267  Uiso   1.00
C2076  C     0.66060   0.87410   0.16060   0.01267  Uiso   1.00
H2077  H     0.16970   0.38840   0.16970   0.01267  Uiso   1.00
C2078  C     0.16060   0.37410   0.16060   0.01267  Uiso   1.00
H2079  H     0.16970   0.88840   0.66970   0.01267  Uiso   1.00
C2080  C     0.16060   0.87410   0.66060   0.01267  Uiso   1.00
H2081  H     0.33030   0.33030   0.38840   0.01267  Uiso   1.00
C2082  C     0.33940   0.33940   0.37410   0.01267  Uiso   1.00
H2083  H     0.33030   0.83030   0.88840   0.01267  Uiso   1.00
C2084  C     0.33940   0.83940   0.87410   0.01267  Uiso   1.00
H2085  H     0.83030   0.33030   0.88840   0.01267  Uiso   1.00
C2086  C     0.83940   0.33940   0.87410   0.01267  Uiso   1.00
H2087  H     0.83030   0.83030   0.38840   0.01267  Uiso   1.00
C2088  C     0.83940   0.83940   0.37410   0.01267  Uiso   1.00
H2089  H     0.66970   0.33030   0.61160   0.01267  Uiso   1.00
C2090  C     0.66060   0.33940   0.62590   0.01267  Uiso   1.00
H2091  H     0.66970   0.83030   0.11160   0.01267  Uiso   1.00
C2092  C     0.66060   0.83940   0.12590   0.01267  Uiso   1.00
H2093  H     0.16970   0.33030   0.11160   0.01267  Uiso   1.00
C2094  C     0.16060   0.33940   0.12590   0.01267  Uiso   1.00
H2095  H     0.16970   0.83030   0.61160   0.01267  Uiso   1.00
C2096  C     0.16060   0.83940   0.62590   0.01267  Uiso   1.00
H2097  H     0.33030   0.66970   0.61160   0.01267  Uiso   1.00
C2098  C     0.33940   0.66060   0.62590   0.01267  Uiso   1.00
H2099  H     0.33030   0.16970   0.11160   0.01267  Uiso   1.00
C2100  C     0.33940   0.16060   0.12590   0.01267  Uiso   1.00
H2101  H     0.83030   0.66970   0.11160   0.01267  Uiso   1.00
C2102  C     0.83940   0.66060   0.12590   0.01267  Uiso   1.00
H2103  H     0.83030   0.16970   0.61160   0.01267  Uiso   1.00
C2104  C     0.83940   0.16060   0.62590   0.01267  Uiso   1.00
H2105  H     0.66970   0.66970   0.38840   0.01267  Uiso   1.00
C2106  C     0.66060   0.66060   0.37410   0.01267  Uiso   1.00
H2107  H     0.66970   0.16970   0.88840   0.01267  Uiso   1.00
C2108  C     0.66060   0.16060   0.87410   0.01267  Uiso   1.00
H2109  H     0.16970   0.66970   0.88840   0.01267  Uiso   1.00
C2110  C     0.16060   0.66060   0.87410   0.01267  Uiso   1.00
H2111  H     0.16970   0.16970   0.38840   0.01267  Uiso   1.00
C2112  C     0.16060   0.16060   0.37410   0.01267  Uiso   1.00
H2113  H     0.33030   0.38840   0.66970   0.01267  Uiso   1.00
C2114  C     0.33940   0.37410   0.66060   0.01267  Uiso   1.00
H2115  H     0.33030   0.88840   0.16970   0.01267  Uiso   1.00
C2116  C     0.33940   0.87410   0.16060   0.01267  Uiso   1.00
H2117  H     0.83030   0.38840   0.16970   0.01267  Uiso   1.00
C2118  C     0.83940   0.37410   0.16060   0.01267  Uiso   1.00
H2119  H     0.83030   0.88840   0.66970   0.01267  Uiso   1.00
C2120  C     0.83940   0.87410   0.66060   0.01267  Uiso   1.00
H2121  H     0.66970   0.61160   0.66970   0.01267  Uiso   1.00
C2122  C     0.66060   0.62590   0.66060   0.01267  Uiso   1.00
H2123  H     0.66970   0.11160   0.16970   0.01267  Uiso   1.00
C2124  C     0.66060   0.12590   0.16060   0.01267  Uiso   1.00
H2125  H     0.16970   0.61160   0.16970   0.01267  Uiso   1.00
C2126  C     0.16060   0.62590   0.16060   0.01267  Uiso   1.00
H2127  H     0.16970   0.11160   0.66970   0.01267  Uiso   1.00
C2128  C     0.16060   0.12590   0.66060   0.01267  Uiso   1.00
H2129  H     0.33030   0.61160   0.33030   0.01267  Uiso   1.00
C2130  C     0.33940   0.62590   0.33940   0.01267  Uiso   1.00
H2131  H     0.33030   0.11160   0.83030   0.01267  Uiso   1.00
C2132  C     0.33940   0.12590   0.83940   0.01267  Uiso   1.00
H2133  H     0.83030   0.61160   0.83030   0.01267  Uiso   1.00
C2134  C     0.83940   0.62590   0.83940   0.01267  Uiso   1.00
H2135  H     0.83030   0.11160   0.33030   0.01267  Uiso   1.00
C2136  C     0.83940   0.12590   0.33940   0.01267  Uiso   1.00
H2137  H     0.66970   0.38840   0.33030   0.01267  Uiso   1.00
C2138  C     0.66060   0.37410   0.33940   0.01267  Uiso   1.00
H2139  H     0.66970   0.88840   0.83030   0.01267  Uiso   1.00
C2140  C     0.66060   0.87410   0.83940   0.01267  Uiso   1.00
H2141  H     0.16970   0.38840   0.83030   0.01267  Uiso   1.00
C2142  C     0.16060   0.37410   0.83940   0.01267  Uiso   1.00
H2143  H     0.16970   0.88840   0.33030   0.01267  Uiso   1.00
C2144  C     0.16060   0.87410   0.33940   0.01267  Uiso   1.00
H2145  H     0.38840   0.33030   0.66970   0.01267  Uiso   1.00
C2146  C     0.37410   0.33940   0.66060   0.01267  Uiso   1.00
H2147  H     0.38840   0.83030   0.16970   0.01267  Uiso   1.00
C2148  C     0.37410   0.83940   0.16060   0.01267  Uiso   1.00
H2149  H     0.88840   0.33030   0.16970   0.01267  Uiso   1.00
C2150  C     0.87410   0.33940   0.16060   0.01267  Uiso   1.00
H2151  H     0.88840   0.83030   0.66970   0.01267  Uiso   1.00
C2152  C     0.87410   0.83940   0.66060   0.01267  Uiso   1.00
H2153  H     0.61160   0.33030   0.33030   0.01267  Uiso   1.00
C2154  C     0.62590   0.33940   0.33940   0.01267  Uiso   1.00
H2155  H     0.61160   0.83030   0.83030   0.01267  Uiso   1.00
C2156  C     0.62590   0.83940   0.83940   0.01267  Uiso   1.00
H2157  H     0.11160   0.33030   0.83030   0.01267  Uiso   1.00
C2158  C     0.12590   0.33940   0.83940   0.01267  Uiso   1.00
H2159  H     0.11160   0.83030   0.33030   0.01267  Uiso   1.00
C2160  C     0.12590   0.83940   0.33940   0.01267  Uiso   1.00
H2161  H     0.61160   0.66970   0.66970   0.01267  Uiso   1.00
C2162  C     0.62590   0.66060   0.66060   0.01267  Uiso   1.00
H2163  H     0.61160   0.16970   0.16970   0.01267  Uiso   1.00
C2164  C     0.62590   0.16060   0.16060   0.01267  Uiso   1.00
H2165  H     0.11160   0.66970   0.16970   0.01267  Uiso   1.00
C2166  C     0.12590   0.66060   0.16060   0.01267  Uiso   1.00
H2167  H     0.11160   0.16970   0.66970   0.01267  Uiso   1.00
C2168  C     0.12590   0.16060   0.66060   0.01267  Uiso   1.00
H2169  H     0.38840   0.66970   0.33030   0.01267  Uiso   1.00
C2170  C     0.37410   0.66060   0.33940   0.01267  Uiso   1.00
H2171  H     0.38840   0.16970   0.83030   0.01267  Uiso   1.00
C2172  C     0.37410   0.16060   0.83940   0.01267  Uiso   1.00
H2173  H     0.88840   0.66970   0.83030   0.01267  Uiso   1.00
C2174  C     0.87410   0.66060   0.83940   0.01267  Uiso   1.00
H2175  H     0.88840   0.16970   0.33030   0.01267  Uiso   1.00
C2176  C     0.87410   0.16060   0.33940   0.01267  Uiso   1.00
H2177  H     0.33030   0.33030   0.61160   0.01267  Uiso   1.00
C2178  C     0.33940   0.33940   0.62590   0.01267  Uiso   1.00
H2179  H     0.33030   0.83030   0.11160   0.01267  Uiso   1.00
C2180  C     0.33940   0.83940   0.12590   0.01267  Uiso   1.00
H2181  H     0.83030   0.33030   0.11160   0.01267  Uiso   1.00
C2182  C     0.83940   0.33940   0.12590   0.01267  Uiso   1.00
H2183  H     0.83030   0.83030   0.61160   0.01267  Uiso   1.00
C2184  C     0.83940   0.83940   0.62590   0.01267  Uiso   1.00
H2185  H     0.33030   0.66970   0.38840   0.01267  Uiso   1.00
C2186  C     0.33940   0.66060   0.37410   0.01267  Uiso   1.00
H2187  H     0.33030   0.16970   0.88840   0.01267  Uiso   1.00
C2188  C     0.33940   0.16060   0.87410   0.01267  Uiso   1.00
H2189  H     0.83030   0.66970   0.88840   0.01267  Uiso   1.00
C2190  C     0.83940   0.66060   0.87410   0.01267  Uiso   1.00
H2191  H     0.83030   0.16970   0.38840   0.01267  Uiso   1.00
C2192  C     0.83940   0.16060   0.37410   0.01267  Uiso   1.00
H2193  H     0.66970   0.33030   0.38840   0.01267  Uiso   1.00
C2194  C     0.66060   0.33940   0.37410   0.01267  Uiso   1.00
H2195  H     0.66970   0.83030   0.88840   0.01267  Uiso   1.00
C2196  C     0.66060   0.83940   0.87410   0.01267  Uiso   1.00
H2197  H     0.16970   0.33030   0.88840   0.01267  Uiso   1.00
C2198  C     0.16060   0.33940   0.87410   0.01267  Uiso   1.00
H2199  H     0.16970   0.83030   0.38840   0.01267  Uiso   1.00
C2200  C     0.16060   0.83940   0.37410   0.01267  Uiso   1.00
H2201  H     0.66970   0.66970   0.61160   0.01267  Uiso   1.00
C2202  C     0.66060   0.66060   0.62590   0.01267  Uiso   1.00
H2203  H     0.66970   0.16970   0.11160   0.01267  Uiso   1.00
C2204  C     0.66060   0.16060   0.12590   0.01267  Uiso   1.00
H2205  H     0.16970   0.66970   0.11160   0.01267  Uiso   1.00
C2206  C     0.16060   0.66060   0.12590   0.01267  Uiso   1.00
H2207  H     0.16970   0.16970   0.61160   0.01267  Uiso   1.00
C2208  C     0.16060   0.16060   0.62590   0.01267  Uiso   1.00
loop_
_geom_bond_atom_site_label_1
_geom_bond_atom_site_label_2
_geom_bond_distance
_geom_bond_site_symmetry_2
_ccdc_geom_bond_type
H1     C4      0.941   .     S
C2     C3      1.588   .     S
C2     O5      1.211   .     A
C2     O6      1.249   .     A
C3     C4      1.290   .     A
C3     C1250   1.399   .     A
C4     C1251   1.460   .     A
O5     Cu1153  1.943   .     S
O6     Cu1204  1.975   .     S
H7     C10     0.941   .     S
C8     C9      1.588   .     S
C8     O11     1.211   .     A
C8     O12     1.249   .     A
C9     C10     1.290   .     A
C9     C1258   1.399   .     A
C10    C1259   1.460   .     A
O11    Cu1189  1.943   .     S
O12    Cu1203  1.975   .     S
H13    C16     0.941   .     S
C14    C15     1.588   .     S
C14    O17     1.211   .     A
C14    O18     1.249   .     A
C15    C16     1.290   .     A
C15    C1266   1.399   .     A
C16    C1267   1.460   .     A
O17    Cu1154  1.943   1_655 S
O18    Cu1202  1.975   1_655 S
H19    C22     0.941   .     S
C20    C21     1.588   .     S
C20    O23     1.211   .     A
C20    O24     1.249   .     A
C21    C22     1.290   .     A
C21    C1274   1.399   .     A
C22    C1275   1.460   .     A
O23    Cu1190  1.943   1_655 S
O24    Cu1201  1.975   1_655 S
H25    C28     0.941   .     S
C26    C27     1.588   .     S
C26    O29     1.211   .     A
C26    O30     1.249   .     A
C27    C28     1.290   .     A
C27    C1282   1.399   .     A
C28    C1283   1.460   .     A
O29    Cu1155  1.943   .     S
O30    Cu1208  1.975   .     S
H31    C34     0.941   .     S
C32    C33     1.588   .     S
C32    O35     1.211   .     A
C32    O36     1.249   .     A
C33    C34     1.290   .     A
C33    C1290   1.399   .     A
C34    C1291   1.460   .     A
O35    Cu1185  1.943   .     S
O36    Cu1207  1.975   .     S
H37    C40     0.941   .     S
C38    C39     1.588   .     S
C38    O41     1.211   .     A
C38    O42     1.249   .     A
C39    C40     1.290   .     A
C39    C1298   1.399   .     A
C40    C1299   1.460   .     A
O41    Cu1156  1.943   .     S
O42    Cu1206  1.975   .     S
H43    C46     0.941   .     S
C44    C45     1.588   .     S
C44    O47     1.211   .     A
C44    O48     1.249   .     A
C45    C46     1.290   .     A
C45    C1306   1.399   .     A
C46    C1307   1.460   .     A
O47    Cu1186  1.943   .     S
O48    Cu1205  1.975   .     S
H49    C52     0.941   .     S
C50    C51     1.588   .     S
C50    O53     1.211   .     A
C50    O54     1.249   .     A
C51    C52     1.290   .     A
C51    C1314   1.399   .     A
C52    C1315   1.460   .     A
O53    Cu1157  1.943   .     S
O54    Cu1212  1.975   .     S
H55    C58     0.941   .     S
C56    C57     1.588   .     S
C56    O59     1.211   .     A
C56    O60     1.249   .     A
C57    C58     1.290   .     A
C57    C1322   1.399   .     A
C58    C1323   1.460   .     A
O59    Cu1191  1.943   .     S
O60    Cu1211  1.975   .     S
H61    C64     0.941   .     S
C62    C63     1.588   .     S
C62    O65     1.211   .     A
C62    O66     1.249   .     A
C63    C64     1.290   .     A
C63    C1330   1.399   .     A
C64    C1331   1.460   .     A
O65    Cu1158  1.943   .     S
O66    Cu1210  1.975   .     S
H67    C70     0.941   .     S
C68    C69     1.588   .     S
C68    O71     1.211   .     A
C68    O72     1.249   .     A
C69    C70     1.290   .     A
C69    C1338   1.399   .     A
C70    C1339   1.460   .     A
O71    Cu1192  1.943   .     S
O72    Cu1209  1.975   .     S
H73    C76     0.941   .     S
C74    C75     1.588   .     S
C74    O77     1.211   .     A
C74    O78     1.249   .     A
C75    C76     1.290   .     A
C75    C1346   1.399   .     A
C76    C1347   1.460   .     A
O77    Cu1159  1.943   .     S
O78    Cu1216  1.975   .     S
H79    C82     0.941   .     S
C80    C81     1.588   .     S
C80    O83     1.211   .     A
C80    O84     1.249   .     A
C81    C82     1.290   .     A
C81    C1354   1.399   .     A
C82    C1355   1.460   .     A
O83    Cu1187  1.943   .     S
O84    Cu1215  1.975   .     S
H85    C88     0.941   .     S
C86    C87     1.588   .     S
C86    O89     1.211   .     A
C86    O90     1.249   .     A
C87    C88     1.290   .     A
C87    C1362   1.399   .     A
C88    C1363   1.460   .     A
O89    Cu1160  1.943   1_655 S
O90    Cu1214  1.975   1_655 S
H91    C94     0.941   .     S
C92    C93     1.588   .     S
C92    O95     1.211   .     A
C92    O96     1.249   .     A
C93    C94     1.290   .     A
C93    C1370   1.399   .     A
C94    C1371   1.460   .     A
O95    Cu1188  1.943   1_655 S
O96    Cu1213  1.975   1_655 S
H97    C100    0.941   .     S
C98    C99     1.588   .     S
C98    O101    1.211   .     A
C98    O102    1.249   .     A
C99    C100    1.290   .     A
C99    C1378   1.399   .     A
C100   C1379   1.460   .     A
O101   Cu1161  1.943   .     S
O102   Cu1218  1.975   .     S
H103   C106    0.941   .     S
C104   C105    1.588   .     S
C104   O107    1.211   .     A
C104   O108    1.249   .     A
C105   C106    1.290   .     A
C105   C1386   1.399   .     A
C106   C1387   1.460   .     A
O107   Cu1162  1.943   1_565 S
O108   Cu1217  1.975   1_565 S
H109   C112    0.941   .     S
C110   C111    1.588   .     S
C110   O113    1.211   .     A
C110   O114    1.249   .     A
C111   C112    1.290   .     A
C111   C1394   1.399   .     A
C112   C1395   1.460   .     A
O113   Cu1179  1.943   .     S
O114   Cu1220  1.975   .     S
H115   C118    0.941   .     S
C116   C117    1.588   .     S
C116   O119    1.211   .     A
C116   O120    1.249   .     A
C117   C118    1.290   .     A
C117   C1402   1.399   .     A
C118   C1403   1.460   .     A
O119   Cu1180  1.943   1_565 S
O120   Cu1219  1.975   1_565 S
H121   C124    0.941   .     S
C122   C123    1.588   .     S
C122   O125    1.211   .     A
C122   O126    1.249   .     A
C123   C124    1.290   .     A
C123   C1410   1.399   .     A
C124   C1411   1.460   .     A
O125   Cu1163  1.943   .     S
O126   Cu1222  1.975   .     S
H127   C130    0.941   .     S
C128   C129    1.588   .     S
C128   O131    1.211   .     A
C128   O132    1.249   .     A
C129   C130    1.290   .     A
C129   C1418   1.399   .     A
C130   C1419   1.460   .     A
O131   Cu1164  1.943   .     S
O132   Cu1221  1.975   .     S
H133   C136    0.941   .     S
C134   C135    1.588   .     S
C134   O137    1.211   .     A
C134   O138    1.249   .     A
C135   C136    1.290   .     A
C135   C1426   1.399   .     A
C136   C1427   1.460   .     A
O137   Cu1183  1.943   .     S
O138   Cu1224  1.975   .     S
H139   C142    0.941   .     S
C140   C141    1.588   .     S
C140   O143    1.211   .     A
C140   O144    1.249   .     A
C141   C142    1.290   .     A
C141   C1434   1.399   .     A
C142   C1435   1.460   .     A
O143   Cu1184  1.943   .     S
O144   Cu1223  1.975   .     S
H145   C148    0.941   .     S
C146   C147    1.588   .     S
C146   O149    1.211   .     A
C146   O150    1.249   .     A
C147   C148    1.290   .     A
C147   C1442   1.399   .     A
C148   C1443   1.460   .     A
O149   Cu1165  1.943   .     S
O150   Cu1226  1.975   .     S
H151   C154    0.941   .     S
C152   C153    1.588   .     S
C152   O155    1.211   .     A
C152   O156    1.249   .     A
C153   C154    1.290   .     A
C153   C1450   1.399   .     A
C154   C1451   1.460   .     A
O155   Cu1166  1.943   .     S
O156   Cu1225  1.975   .     S
H157   C160    0.941   .     S
C158   C159    1.588   .     S
C158   O161    1.211   .     A
C158   O162    1.249   .     A
C159   C160    1.290   .     A
C159   C1458   1.399   .     A
C160   C1459   1.460   .     A
O161   Cu1177  1.943   .     S
O162   Cu1228  1.975   .     S
H163   C166    0.941   .     S
C164   C165    1.588   .     S
C164   O167    1.211   .     A
C164   O168    1.249   .     A
C165   C166    1.290   .     A
C165   C1466   1.399   .     A
C166   C1467   1.460   .     A
O167   Cu1178  1.943   .     S
O168   Cu1227  1.975   .     S
H169   C172    0.941   .     S
C170   C171    1.588   .     S
C170   O173    1.211   .     A
C170   O174    1.249   .     A
C171   C172    1.290   .     A
C171   C1474   1.399   .     A
C172   C1475   1.460   .     A
O173   Cu1167  1.943   .     S
O174   Cu1230  1.975   .     S
H175   C178    0.941   .     S
C176   C177    1.588   .     S
C176   O179    1.211   .     A
C176   O180    1.249   .     A
C177   C178    1.290   .     A
C177   C1482   1.399   .     A
C178   C1483   1.460   .     A
O179   Cu1168  1.943   1_565 S
O180   Cu1229  1.975   1_565 S
H181   C184    0.941   .     S
C182   C183    1.588   .     S
C182   O185    1.211   .     A
C182   O186    1.249   .     A
C183   C184    1.290   .     A
C183   C1490   1.399   .     A
C184   C1491   1.460   .     A
O185   Cu1181  1.943   .     S
O186   Cu1232  1.975   .     S
H187   C190    0.941   .     S
C188   C189    1.588   .     S
C188   O191    1.211   .     A
C188   O192    1.249   .     A
C189   C190    1.290   .     A
C189   C1498   1.399   .     A
C190   C1499   1.460   .     A
O191   Cu1182  1.943   1_565 S
O192   Cu1231  1.975   1_565 S
H193   C196    0.941   .     S
C194   C195    1.588   .     S
C194   O197    1.211   .     A
C194   O198    1.249   .     A
C195   C196    1.290   .     A
C195   C1506   1.399   .     A
C196   C1507   1.460   .     A
O197   Cu1169  1.943   .     S
O198   Cu1235  1.975   .     S
H199   C202    0.941   .     S
C200   C201    1.588   .     S
C200   O203    1.211   .     A
C200   O204    1.249   .     A
C201   C202    1.290   .     A
C201   C1514   1.399   .     A
C202   C1515   1.460   .     A
O203   Cu1170  1.943   1_556 S
O204   Cu1236  1.975   1_556 S
H205   C208    0.941   .     S
C206   C207    1.588   .     S
C206   O209    1.211   .     A
C206   O210    1.249   .     A
C207   C208    1.290   .     A
C207   C1522   1.399   .     A
C208   C1523   1.460   .     A
O209   Cu1200  1.943   1_556 S
O210   Cu1233  1.975   1_556 S
H211   C214    0.941   .     S
C212   C213    1.588   .     S
C212   O215    1.211   .     A
C212   O216    1.249   .     A
C213   C214    1.290   .     A
C213   C1530   1.399   .     A
C214   C1531   1.460   .     A
O215   Cu1199  1.943   .     S
O216   Cu1234  1.975   .     S
H217   C220    0.941   .     S
C218   C219    1.588   .     S
C218   O221    1.211   .     A
C218   O222    1.249   .     A
C219   C220    1.290   .     A
C219   C1538   1.399   .     A
C220   C1539   1.460   .     A
O221   Cu1171  1.943   .     S
O222   Cu1239  1.975   .     S
H223   C226    0.941   .     S
C224   C225    1.588   .     S
C224   O227    1.211   .     A
C224   O228    1.249   .     A
C225   C226    1.290   .     A
C225   C1546   1.399   .     A
C226   C1547   1.460   .     A
O227   Cu1172  1.943   .     S
O228   Cu1240  1.975   .     S
H229   C232    0.941   .     S
C230   C231    1.588   .     S
C230   O233    1.211   .     A
C230   O234    1.249   .     A
C231   C232    1.290   .     A
C231   C1554   1.399   .     A
C232   C1555   1.460   .     A
O233   Cu1196  1.943   .     S
O234   Cu1237  1.975   .     S
H235   C238    0.941   .     S
C236   C237    1.588   .     S
C236   O239    1.211   .     A
C236   O240    1.249   .     A
C237   C238    1.290   .     A
C237   C1562   1.399   .     A
C238   C1563   1.460   .     A
O239   Cu1195  1.943   .     S
O240   Cu1238  1.975   .     S
H241   C244    0.941   .     S
C242   C243    1.588   .     S
C242   O245    1.211   .     A
C242   O246    1.249   .     A
C243   C244    1.290   .     A
C243   C1570   1.399   .     A
C244   C1571   1.460   .     A
O245   Cu1173  1.943   .     S
O246   Cu1243  1.975   .     S
H247   C250    0.941   .     S
C248   C249    1.588   .     S
C248   O251    1.211   .     A
C248   O252    1.249   .     A
C249   C250    1.290   .     A
C249   C1578   1.399   .     A
C250   C1579   1.460   .     A
O251   Cu1174  1.943   .     S
O252   Cu1244  1.975   .     S
H253   C256    0.941   .     S
C254   C255    1.588   .     S
C254   O257    1.211   .     A
C254   O258    1.249   .     A
C255   C256    1.290   .     A
C255   C1586   1.399   .     A
C256   C1587   1.460   .     A
O257   Cu1198  1.943   .     S
O258   Cu1241  1.975   .     S
H259   C262    0.941   .     S
C260   C261    1.588   .     S
C260   O263    1.211   .     A
C260   O264    1.249   .     A
C261   C262    1.290   .     A
C261   C1594   1.399   .     A
C262   C1595   1.460   .     A
O263   Cu1197  1.943   .     S
O264   Cu1242  1.975   .     S
H265   C268    0.941   .     S
C266   C267    1.588   .     S
C266   O269    1.211   .     A
C266   O270    1.249   .     A
C267   C268    1.290   .     A
C267   C1602   1.399   .     A
C268   C1603   1.460   .     A
O269   Cu1175  1.943   .     S
O270   Cu1247  1.975   .     S
H271   C274    0.941   .     S
C272   C273    1.588   .     S
C272   O275    1.211   .     A
C272   O276    1.249   .     A
C273   C274    1.290   .     A
C273   C1610   1.399   .     A
C274   C1611   1.460   .     A
O275   Cu1176  1.943   1_556 S
O276   Cu1248  1.975   1_556 S
H277   C280    0.941   .     S
C278   C279    1.588   .     S
C278   O281    1.211   .     A
C278   O282    1.249   .     A
C279   C280    1.290   .     A
C279   C1618   1.399   .     A
C280   C1619   1.460   .     A
O281   Cu1194  1.943   1_556 S
O282   Cu1245  1.975   1_556 S
H283   C286    0.941   .     S
C284   C285    1.588   .     S
C284   O287    1.211   .     A
C284   O288    1.249   .     A
C285   C286    1.290   .     A
C285   C1626   1.399   .     A
C286   C1627   1.460   .     A
O287   Cu1193  1.943   .     S
O288   Cu1246  1.975   .     S
H289   C292    0.941   .     S
C290   C291    1.588   .     S
C290   O293    1.211   .     A
C290   O294    1.249   .     A
C291   C292    1.290   .     A
C291   C1634   1.399   .     A
C292   C1635   1.460   .     A
O293   Cu1177  1.943   .     S
O294   Cu1228  1.975   .     S
H295   C298    0.941   .     S
C296   C297    1.588   .     S
C296   O299    1.211   .     A
C296   O300    1.249   .     A
C297   C298    1.290   .     A
C297   C1642   1.399   .     A
C298   C1643   1.460   .     A
O299   Cu1178  1.943   1_565 S
O300   Cu1227  1.975   1_565 S
H301   C304    0.941   .     S
C302   C303    1.588   .     S
C302   O305    1.211   .     A
C302   O306    1.249   .     A
C303   C304    1.290   .     A
C303   C1650   1.399   .     A
C304   C1651   1.460   .     A
O305   Cu1165  1.943   .     S
O306   Cu1226  1.975   .     S
H307   C310    0.941   .     S
C308   C309    1.588   .     S
C308   O311    1.211   .     A
C308   O312    1.249   .     A
C309   C310    1.290   .     A
C309   C1658   1.399   .     A
C310   C1659   1.460   .     A
O311   Cu1166  1.943   1_565 S
O312   Cu1225  1.975   1_565 S
H313   C316    0.941   .     S
C314   C315    1.588   .     S
C314   O317    1.211   .     A
C314   O318    1.249   .     A
C315   C316    1.290   .     A
C315   C1666   1.399   .     A
C316   C1667   1.460   .     A
O317   Cu1179  1.943   .     S
O318   Cu1220  1.975   .     S
H319   C322    0.941   .     S
C320   C321    1.588   .     S
C320   O323    1.211   .     A
C320   O324    1.249   .     A
C321   C322    1.290   .     A
C321   C1674   1.399   .     A
C322   C1675   1.460   .     A
O323   Cu1180  1.943   .     S
O324   Cu1219  1.975   .     S
H325   C328    0.941   .     S
C326   C327    1.588   .     S
C326   O329    1.211   .     A
C326   O330    1.249   .     A
C327   C328    1.290   .     A
C327   C1682   1.399   .     A
C328   C1683   1.460   .     A
O329   Cu1161  1.943   .     S
O330   Cu1218  1.975   .     S
H331   C334    0.941   .     S
C332   C333    1.588   .     S
C332   O335    1.211   .     A
C332   O336    1.249   .     A
C333   C334    1.290   .     A
C333   C1690   1.399   .     A
C334   C1691   1.460   .     A
O335   Cu1162  1.943   .     S
O336   Cu1217  1.975   .     S
H337   C340    0.941   .     S
C338   C339    1.588   .     S
C338   O341    1.211   .     A
C338   O342    1.249   .     A
C339   C340    1.290   .     A
C339   C1698   1.399   .     A
C340   C1699   1.460   .     A
O341   Cu1181  1.943   .     S
O342   Cu1232  1.975   .     S
H343   C346    0.941   .     S
C344   C345    1.588   .     S
C344   O347    1.211   .     A
C344   O348    1.249   .     A
C345   C346    1.290   .     A
C345   C1706   1.399   .     A
C346   C1707   1.460   .     A
O347   Cu1182  1.943   .     S
O348   Cu1231  1.975   .     S
H349   C352    0.941   .     S
C350   C351    1.588   .     S
C350   O353    1.211   .     A
C350   O354    1.249   .     A
C351   C352    1.290   .     A
C351   C1714   1.399   .     A
C352   C1715   1.460   .     A
O353   Cu1167  1.943   .     S
O354   Cu1230  1.975   .     S
H355   C358    0.941   .     S
C356   C357    1.588   .     S
C356   O359    1.211   .     A
C356   O360    1.249   .     A
C357   C358    1.290   .     A
C357   C1722   1.399   .     A
C358   C1723   1.460   .     A
O359   Cu1168  1.943   .     S
O360   Cu1229  1.975   .     S
H361   C364    0.941   .     S
C362   C363    1.588   .     S
C362   O365    1.211   .     A
C362   O366    1.249   .     A
C363   C364    1.290   .     A
C363   C1730   1.399   .     A
C364   C1731   1.460   .     A
O365   Cu1183  1.943   .     S
O366   Cu1224  1.975   .     S
H367   C370    0.941   .     S
C368   C369    1.588   .     S
C368   O371    1.211   .     A
C368   O372    1.249   .     A
C369   C370    1.290   .     A
C369   C1738   1.399   .     A
C370   C1739   1.460   .     A
O371   Cu1184  1.943   1_565 S
O372   Cu1223  1.975   1_565 S
H373   C376    0.941   .     S
C374   C375    1.588   .     S
C374   O377    1.211   .     A
C374   O378    1.249   .     A
C375   C376    1.290   .     A
C375   C1746   1.399   .     A
C376   C1747   1.460   .     A
O377   Cu1163  1.943   .     S
O378   Cu1222  1.975   .     S
H379   C382    0.941   .     S
C380   C381    1.588   .     S
C380   O383    1.211   .     A
C380   O384    1.249   .     A
C381   C382    1.290   .     A
C381   C1754   1.399   .     A
C382   C1755   1.460   .     A
O383   Cu1164  1.943   1_565 S
O384   Cu1221  1.975   1_565 S
H385   C388    0.941   .     S
C386   C387    1.588   .     S
C386   O389    1.211   .     A
C386   O390    1.249   .     A
C387   C388    1.290   .     A
C387   C1762   1.399   .     A
C388   C1763   1.460   .     A
O389   Cu1185  1.943   .     S
O390   Cu1207  1.975   .     S
H391   C394    0.941   .     S
C392   C393    1.588   .     S
C392   O395    1.211   .     A
C392   O396    1.249   .     A
C393   C394    1.290   .     A
C393   C1770   1.399   .     A
C394   C1771   1.460   .     A
O395   Cu1155  1.943   .     S
O396   Cu1208  1.975   .     S
H397   C400    0.941   .     S
C398   C399    1.588   .     S
C398   O401    1.211   .     A
C398   O402    1.249   .     A
C399   C400    1.290   .     A
C399   C1778   1.399   .     A
C400   C1779   1.460   .     A
O401   Cu1186  1.943   1_655 S
O402   Cu1205  1.975   1_655 S
H403   C406    0.941   .     S
C404   C405    1.588   .     S
C404   O407    1.211   .     A
C404   O408    1.249   .     A
C405   C406    1.290   .     A
C405   C1786   1.399   .     A
C406   C1787   1.460   .     A
O407   Cu1156  1.943   1_655 S
O408   Cu1206  1.975   1_655 S
H409   C412    0.941   .     S
C410   C411    1.588   .     S
C410   O413    1.211   .     A
C410   O414    1.249   .     A
C411   C412    1.290   .     A
C411   C1794   1.399   .     A
C412   C1795   1.460   .     A
O413   Cu1187  1.943   .     S
O414   Cu1215  1.975   .     S
H415   C418    0.941   .     S
C416   C417    1.588   .     S
C416   O419    1.211   .     A
C416   O420    1.249   .     A
C417   C418    1.290   .     A
C417   C1802   1.399   .     A
C418   C1803   1.460   .     A
O419   Cu1159  1.943   .     S
O420   Cu1216  1.975   .     S
H421   C424    0.941   .     S
C422   C423    1.588   .     S
C422   O425    1.211   .     A
C422   O426    1.249   .     A
C423   C424    1.290   .     A
C423   C1810   1.399   .     A
C424   C1811   1.460   .     A
O425   Cu1188  1.943   .     S
O426   Cu1213  1.975   .     S
H427   C430    0.941   .     S
C428   C429    1.588   .     S
C428   O431    1.211   .     A
C428   O432    1.249   .     A
C429   C430    1.290   .     A
C429   C1818   1.399   .     A
C430   C1819   1.460   .     A
O431   Cu1160  1.943   .     S
O432   Cu1214  1.975   .     S
H433   C436    0.941   .     S
C434   C435    1.588   .     S
C434   O437    1.211   .     A
C434   O438    1.249   .     A
C435   C436    1.290   .     A
C435   C1826   1.399   .     A
C436   C1827   1.460   .     A
O437   Cu1189  1.943   .     S
O438   Cu1203  1.975   .     S
H439   C442    0.941   .     S
C440   C441    1.588   .     S
C440   O443    1.211   .     A
C440   O444    1.249   .     A
C441   C442    1.290   .     A
C441   C1834   1.399   .     A
C442   C1835   1.460   .     A
O443   Cu1153  1.943   .     S
O444   Cu1204  1.975   .     S
H445   C448    0.941   .     S
C446   C447    1.588   .     S
C446   O449    1.211   .     A
C446   O450    1.249   .     A
C447   C448    1.290   .     A
C447   C1842   1.399   .     A
C448   C1843   1.460   .     A
O449   Cu1190  1.943   .     S
O450   Cu1201  1.975   .     S
H451   C454    0.941   .     S
C452   C453    1.588   .     S
C452   O455    1.211   .     A
C452   O456    1.249   .     A
C453   C454    1.290   .     A
C453   C1850   1.399   .     A
C454   C1851   1.460   .     A
O455   Cu1154  1.943   .     S
O456   Cu1202  1.975   .     S
H457   C460    0.941   .     S
C458   C459    1.588   .     S
C458   O461    1.211   .     A
C458   O462    1.249   .     A
C459   C460    1.290   .     A
C459   C1858   1.399   .     A
C460   C1859   1.460   .     A
O461   Cu1191  1.943   .     S
O462   Cu1211  1.975   .     S
H463   C466    0.941   .     S
C464   C465    1.588   .     S
C464   O467    1.211   .     A
C464   O468    1.249   .     A
C465   C466    1.290   .     A
C465   C1866   1.399   .     A
C466   C1867   1.460   .     A
O467   Cu1157  1.943   .     S
O468   Cu1212  1.975   .     S
H469   C472    0.941   .     S
C470   C471    1.588   .     S
C470   O473    1.211   .     A
C470   O474    1.249   .     A
C471   C472    1.290   .     A
C471   C1874   1.399   .     A
C472   C1875   1.460   .     A
O473   Cu1192  1.943   1_655 S
O474   Cu1209  1.975   1_655 S
H475   C478    0.941   .     S
C476   C477    1.588   .     S
C476   O479    1.211   .     A
C476   O480    1.249   .     A
C477   C478    1.290   .     A
C477   C1882   1.399   .     A
C478   C1883   1.460   .     A
O479   Cu1158  1.943   1_655 S
O480   Cu1210  1.975   1_655 S
H481   C484    0.941   .     S
C482   C483    1.588   .     S
C482   O485    1.211   .     A
C482   O486    1.249   .     A
C483   C484    1.290   .     A
C483   C1890   1.399   .     A
C484   C1891   1.460   .     A
O485   Cu1193  1.943   .     S
O486   Cu1246  1.975   .     S
H487   C490    0.941   .     S
C488   C489    1.588   .     S
C488   O491    1.211   .     A
C488   O492    1.249   .     A
C489   C490    1.290   .     A
C489   C1898   1.399   .     A
C490   C1899   1.460   .     A
O491   Cu1194  1.943   .     S
O492   Cu1245  1.975   .     S
H493   C496    0.941   .     S
C494   C495    1.588   .     S
C494   O497    1.211   .     A
C494   O498    1.249   .     A
C495   C496    1.290   .     A
C495   C1906   1.399   .     A
C496   C1907   1.460   .     A
O497   Cu1176  1.943   .     S
O498   Cu1248  1.975   .     S
H499   C502    0.941   .     S
C500   C501    1.588   .     S
C500   O503    1.211   .     A
C500   O504    1.249   .     A
C501   C502    1.290   .     A
C501   C1914   1.399   .     A
C502   C1915   1.460   .     A
O503   Cu1175  1.943   .     S
O504   Cu1247  1.975   .     S
H505   C508    0.941   .     S
C506   C507    1.588   .     S
C506   O509    1.211   .     A
C506   O510    1.249   .     A
C507   C508    1.290   .     A
C507   C1922   1.399   .     A
C508   C1923   1.460   .     A
O509   Cu1195  1.943   .     S
O510   Cu1238  1.975   .     S
H511   C514    0.941   .     S
C512   C513    1.588   .     S
C512   O515    1.211   .     A
C512   O516    1.249   .     A
C513   C514    1.290   .     A
C513   C1930   1.399   .     A
C514   C1931   1.460   .     A
O515   Cu1196  1.943   1_556 S
O516   Cu1237  1.975   1_556 S
H517   C520    0.941   .     S
C518   C519    1.588   .     S
C518   O521    1.211   .     A
C518   O522    1.249   .     A
C519   C520    1.290   .     A
C519   C1938   1.399   .     A
C520   C1939   1.460   .     A
O521   Cu1172  1.943   1_556 S
O522   Cu1240  1.975   1_556 S
H523   C526    0.941   .     S
C524   C525    1.588   .     S
C524   O527    1.211   .     A
C524   O528    1.249   .     A
C525   C526    1.290   .     A
C525   C1946   1.399   .     A
C526   C1947   1.460   .     A
O527   Cu1171  1.943   .     S
O528   Cu1239  1.975   .     S
H529   C532    0.941   .     S
C530   C531    1.588   .     S
C530   O533    1.211   .     A
C530   O534    1.249   .     A
C531   C532    1.290   .     A
C531   C1954   1.399   .     A
C532   C1955   1.460   .     A
O533   Cu1197  1.943   .     S
O534   Cu1242  1.975   .     S
H535   C538    0.941   .     S
C536   C537    1.588   .     S
C536   O539    1.211   .     A
C536   O540    1.249   .     A
C537   C538    1.290   .     A
C537   C1962   1.399   .     A
C538   C1963   1.460   .     A
O539   Cu1198  1.943   1_556 S
O540   Cu1241  1.975   1_556 S
H541   C544    0.941   .     S
C542   C543    1.588   .     S
C542   O545    1.211   .     A
C542   O546    1.249   .     A
C543   C544    1.290   .     A
C543   C1970   1.399   .     A
C544   C1971   1.460   .     A
O545   Cu1174  1.943   1_556 S
O546   Cu1244  1.975   1_556 S
H547   C550    0.941   .     S
C548   C549    1.588   .     S
C548   O551    1.211   .     A
C548   O552    1.249   .     A
C549   C550    1.290   .     A
C549   C1978   1.399   .     A
C550   C1979   1.460   .     A
O551   Cu1173  1.943   .     S
O552   Cu1243  1.975   .     S
H553   C556    0.941   .     S
C554   C555    1.588   .     S
C554   O557    1.211   .     A
C554   O558    1.249   .     A
C555   C556    1.290   .     A
C555   C1986   1.399   .     A
C556   C1987   1.460   .     A
O557   Cu1199  1.943   .     S
O558   Cu1234  1.975   .     S
H559   C562    0.941   .     S
C560   C561    1.588   .     S
C560   O563    1.211   .     A
C560   O564    1.249   .     A
C561   C562    1.290   .     A
C561   C1994   1.399   .     A
C562   C1995   1.460   .     A
O563   Cu1200  1.943   .     S
O564   Cu1233  1.975   .     S
H565   C568    0.941   .     S
C566   C567    1.588   .     S
C566   O569    1.211   .     A
C566   O570    1.249   .     A
C567   C568    1.290   .     A
C567   C2002   1.399   .     A
C568   C2003   1.460   .     A
O569   Cu1170  1.943   .     S
O570   Cu1236  1.975   .     S
H571   C574    0.941   .     S
C572   C573    1.588   .     S
C572   O575    1.211   .     A
C572   O576    1.249   .     A
C573   C574    1.290   .     A
C573   C2010   1.399   .     A
C574   C2011   1.460   .     A
O575   Cu1169  1.943   .     S
O576   Cu1235  1.975   .     S
H577   C580    0.941   .     S
C578   C579    1.588   .     S
C578   O581    1.211   .     A
C578   O582    1.249   .     A
C579   C580    1.290   .     A
C579   C1986   1.399   .     A
C580   C1987   1.460   .     A
O581   Cu1159  1.943   .     S
O582   Cu1216  1.975   .     S
H583   C586    0.941   .     S
C584   C585    1.588   .     S
C584   O587    1.211   .     A
C584   O588    1.249   .     A
C585   C586    1.290   .     A
C585   C1994   1.399   .     A
C586   C1995   1.460   .     A
O587   Cu1187  1.943   .     S
O588   Cu1215  1.975   .     S
H589   C592    0.941   .     S
C590   C591    1.588   .     S
C590   O593    1.211   .     A
C590   O594    1.249   .     A
C591   C592    1.290   .     A
C591   C2002   1.399   .     A
C592   C2003   1.460   .     A
O593   Cu1160  1.943   .     S
O594   Cu1214  1.975   .     S
H595   C598    0.941   .     S
C596   C597    1.588   .     S
C596   O599    1.211   .     A
C596   O600    1.249   .     A
C597   C598    1.290   .     A
C597   C2010   1.399   .     A
C598   C2011   1.460   .     A
O599   Cu1188  1.943   .     S
O600   Cu1213  1.975   .     S
H601   C604    0.941   .     S
C602   C603    1.588   .     S
C602   O605    1.211   .     A
C602   O606    1.249   .     A
C603   C604    1.290   .     A
C603   C1890   1.399   .     A
C604   C1891   1.460   .     A
O605   Cu1157  1.943   .     S
O606   Cu1212  1.975   .     S
H607   C610    0.941   .     S
C608   C609    1.588   .     S
C608   O611    1.211   .     A
C608   O612    1.249   .     A
C609   C610    1.290   .     A
C609   C1898   1.399   .     A
C610   C1899   1.460   .     A
O611   Cu1191  1.943   .     S
O612   Cu1211  1.975   .     S
H613   C616    0.941   .     S
C614   C615    1.588   .     S
C614   O617    1.211   .     A
C614   O618    1.249   .     A
C615   C616    1.290   .     A
C615   C1906   1.399   .     A
C616   C1907   1.460   .     A
O617   Cu1158  1.943   1_655 S
O618   Cu1210  1.975   1_655 S
H619   C622    0.941   .     S
C620   C621    1.588   .     S
C620   O623    1.211   .     A
C620   O624    1.249   .     A
C621   C622    1.290   .     A
C621   C1914   1.399   .     A
C622   C1915   1.460   .     A
O623   Cu1192  1.943   1_655 S
O624   Cu1209  1.975   1_655 S
H625   C628    0.941   .     S
C626   C627    1.588   .     S
C626   O629    1.211   .     A
C626   O630    1.249   .     A
C627   C628    1.290   .     A
C627   C1922   1.399   .     A
C628   C1923   1.460   .     A
O629   Cu1155  1.943   .     S
O630   Cu1208  1.975   .     S
H631   C634    0.941   .     S
C632   C633    1.588   .     S
C632   O635    1.211   .     A
C632   O636    1.249   .     A
C633   C634    1.290   .     A
C633   C1930   1.399   .     A
C634   C1931   1.460   .     A
O635   Cu1185  1.943   .     S
O636   Cu1207  1.975   .     S
H637   C640    0.941   .     S
C638   C639    1.588   .     S
C638   O641    1.211   .     A
C638   O642    1.249   .     A
C639   C640    1.290   .     A
C639   C1938   1.399   .     A
C640   C1939   1.460   .     A
O641   Cu1156  1.943   1_655 S
O642   Cu1206  1.975   1_655 S
H643   C646    0.941   .     S
C644   C645    1.588   .     S
C644   O647    1.211   .     A
C644   O648    1.249   .     A
C645   C646    1.290   .     A
C645   C1946   1.399   .     A
C646   C1947   1.460   .     A
O647   Cu1186  1.943   1_655 S
O648   Cu1205  1.975   1_655 S
H649   C652    0.941   .     S
C650   C651    1.588   .     S
C650   O653    1.211   .     A
C650   O654    1.249   .     A
C651   C652    1.290   .     A
C651   C1954   1.399   .     A
C652   C1955   1.460   .     A
O653   Cu1153  1.943   .     S
O654   Cu1204  1.975   .     S
H655   C658    0.941   .     S
C656   C657    1.588   .     S
C656   O659    1.211   .     A
C656   O660    1.249   .     A
C657   C658    1.290   .     A
C657   C1962   1.399   .     A
C658   C1963   1.460   .     A
O659   Cu1189  1.943   .     S
O660   Cu1203  1.975   .     S
H661   C664    0.941   .     S
C662   C663    1.588   .     S
C662   O665    1.211   .     A
C662   O666    1.249   .     A
C663   C664    1.290   .     A
C663   C1970   1.399   .     A
C664   C1971   1.460   .     A
O665   Cu1154  1.943   .     S
O666   Cu1202  1.975   .     S
H667   C670    0.941   .     S
C668   C669    1.588   .     S
C668   O671    1.211   .     A
C668   O672    1.249   .     A
C669   C670    1.290   .     A
C669   C1978   1.399   .     A
C670   C1979   1.460   .     A
O671   Cu1190  1.943   .     S
O672   Cu1201  1.975   .     S
H673   C676    0.941   .     S
C674   C675    1.588   .     S
C674   O677    1.211   .     A
C674   O678    1.249   .     A
C675   C676    1.290   .     A
C675   C1826   1.399   .     A
C676   C1827   1.460   .     A
O677   Cu1167  1.943   .     S
O678   Cu1230  1.975   .     S
H679   C682    0.941   .     S
C680   C681    1.588   .     S
C680   O683    1.211   .     A
C680   O684    1.249   .     A
C681   C682    1.290   .     A
C681   C1834   1.399   .     A
C682   C1835   1.460   .     A
O683   Cu1168  1.943   .     S
O684   Cu1229  1.975   .     S
H685   C688    0.941   .     S
C686   C687    1.588   .     S
C686   O689    1.211   .     A
C686   O690    1.249   .     A
C687   C688    1.290   .     A
C687   C1842   1.399   .     A
C688   C1843   1.460   .     A
O689   Cu1181  1.943   .     S
O690   Cu1232  1.975   .     S
H691   C694    0.941   .     S
C692   C693    1.588   .     S
C692   O695    1.211   .     A
C692   O696    1.249   .     A
C693   C694    1.290   .     A
C693   C1850   1.399   .     A
C694   C1851   1.460   .     A
O695   Cu1182  1.943   .     S
O696   Cu1231  1.975   .     S
H697   C700    0.941   .     S
C698   C699    1.588   .     S
C698   O701    1.211   .     A
C698   O702    1.249   .     A
C699   C700    1.290   .     A
C699   C1794   1.399   .     A
C700   C1795   1.460   .     A
O701   Cu1165  1.943   .     S
O702   Cu1226  1.975   .     S
H703   C706    0.941   .     S
C704   C705    1.588   .     S
C704   O707    1.211   .     A
C704   O708    1.249   .     A
C705   C706    1.290   .     A
C705   C1802   1.399   .     A
C706   C1803   1.460   .     A
O707   Cu1166  1.943   1_565 S
O708   Cu1225  1.975   1_565 S
H709   C712    0.941   .     S
C710   C711    1.588   .     S
C710   O713    1.211   .     A
C710   O714    1.249   .     A
C711   C712    1.290   .     A
C711   C1810   1.399   .     A
C712   C1811   1.460   .     A
O713   Cu1177  1.943   .     S
O714   Cu1228  1.975   .     S
H715   C718    0.941   .     S
C716   C717    1.588   .     S
C716   O719    1.211   .     A
C716   O720    1.249   .     A
C717   C718    1.290   .     A
C717   C1818   1.399   .     A
C718   C1819   1.460   .     A
O719   Cu1178  1.943   1_565 S
O720   Cu1227  1.975   1_565 S
H721   C724    0.941   .     S
C722   C723    1.588   .     S
C722   O725    1.211   .     A
C722   O726    1.249   .     A
C723   C724    1.290   .     A
C723   C1762   1.399   .     A
C724   C1763   1.460   .     A
O725   Cu1163  1.943   .     S
O726   Cu1222  1.975   .     S
H727   C730    0.941   .     S
C728   C729    1.588   .     S
C728   O731    1.211   .     A
C728   O732    1.249   .     A
C729   C730    1.290   .     A
C729   C1770   1.399   .     A
C730   C1771   1.460   .     A
O731   Cu1164  1.943   1_565 S
O732   Cu1221  1.975   1_565 S
H733   C736    0.941   .     S
C734   C735    1.588   .     S
C734   O737    1.211   .     A
C734   O738    1.249   .     A
C735   C736    1.290   .     A
C735   C1778   1.399   .     A
C736   C1779   1.460   .     A
O737   Cu1183  1.943   .     S
O738   Cu1224  1.975   .     S
H739   C742    0.941   .     S
C740   C741    1.588   .     S
C740   O743    1.211   .     A
C740   O744    1.249   .     A
C741   C742    1.290   .     A
C741   C1786   1.399   .     A
C742   C1787   1.460   .     A
O743   Cu1184  1.943   1_565 S
O744   Cu1223  1.975   1_565 S
H745   C748    0.941   .     S
C746   C747    1.588   .     S
C746   O749    1.211   .     A
C746   O750    1.249   .     A
C747   C748    1.290   .     A
C747   C1858   1.399   .     A
C748   C1859   1.460   .     A
O749   Cu1161  1.943   .     S
O750   Cu1218  1.975   .     S
H751   C754    0.941   .     S
C752   C753    1.588   .     S
C752   O755    1.211   .     A
C752   O756    1.249   .     A
C753   C754    1.290   .     A
C753   C1866   1.399   .     A
C754   C1867   1.460   .     A
O755   Cu1162  1.943   .     S
O756   Cu1217  1.975   .     S
H757   C760    0.941   .     S
C758   C759    1.588   .     S
C758   O761    1.211   .     A
C758   O762    1.249   .     A
C759   C760    1.290   .     A
C759   C1874   1.399   .     A
C760   C1875   1.460   .     A
O761   Cu1179  1.943   .     S
O762   Cu1220  1.975   .     S
H763   C766    0.941   .     S
C764   C765    1.588   .     S
C764   O767    1.211   .     A
C764   O768    1.249   .     A
C765   C766    1.290   .     A
C765   C1882   1.399   .     A
C766   C1883   1.460   .     A
O767   Cu1180  1.943   .     S
O768   Cu1219  1.975   .     S
H769   C772    0.941   .     S
C770   C771    1.588   .     S
C770   O773    1.211   .     A
C770   O774    1.249   .     A
C771   C772    1.290   .     A
C771   C1666   1.399   .     A
C772   C1667   1.460   .     A
O773   Cu1175  1.943   .     S
O774   Cu1247  1.975   .     S
H775   C778    0.941   .     S
C776   C777    1.588   .     S
C776   O779    1.211   .     A
C776   O780    1.249   .     A
C777   C778    1.290   .     A
C777   C1674   1.399   .     A
C778   C1675   1.460   .     A
O779   Cu1176  1.943   .     S
O780   Cu1248  1.975   .     S
H781   C784    0.941   .     S
C782   C783    1.588   .     S
C782   O785    1.211   .     A
C782   O786    1.249   .     A
C783   C784    1.290   .     A
C783   C1682   1.399   .     A
C784   C1683   1.460   .     A
O785   Cu1194  1.943   .     S
O786   Cu1245  1.975   .     S
H787   C790    0.941   .     S
C788   C789    1.588   .     S
C788   O791    1.211   .     A
C788   O792    1.249   .     A
C789   C790    1.290   .     A
C789   C1690   1.399   .     A
C790   C1691   1.460   .     A
O791   Cu1193  1.943   .     S
O792   Cu1246  1.975   .     S
H793   C796    0.941   .     S
C794   C795    1.588   .     S
C794   O797    1.211   .     A
C794   O798    1.249   .     A
C795   C796    1.290   .     A
C795   C1698   1.399   .     A
C796   C1699   1.460   .     A
O797   Cu1173  1.943   .     S
O798   Cu1243  1.975   .     S
H799   C802    0.941   .     S
C800   C801    1.588   .     S
C800   O803    1.211   .     A
C800   O804    1.249   .     A
C801   C802    1.290   .     A
C801   C1706   1.399   .     A
C802   C1707   1.460   .     A
O803   Cu1174  1.943   1_556 S
O804   Cu1244  1.975   1_556 S
H805   C808    0.941   .     S
C806   C807    1.588   .     S
C806   O809    1.211   .     A
C806   O810    1.249   .     A
C807   C808    1.290   .     A
C807   C1714   1.399   .     A
C808   C1715   1.460   .     A
O809   Cu1198  1.943   1_556 S
O810   Cu1241  1.975   1_556 S
H811   C814    0.941   .     S
C812   C813    1.588   .     S
C812   O815    1.211   .     A
C812   O816    1.249   .     A
C813   C814    1.290   .     A
C813   C1722   1.399   .     A
C814   C1723   1.460   .     A
O815   Cu1197  1.943   .     S
O816   Cu1242  1.975   .     S
H817   C820    0.941   .     S
C818   C819    1.588   .     S
C818   O821    1.211   .     A
C818   O822    1.249   .     A
C819   C820    1.290   .     A
C819   C1730   1.399   .     A
C820   C1731   1.460   .     A
O821   Cu1171  1.943   .     S
O822   Cu1239  1.975   .     S
H823   C826    0.941   .     S
C824   C825    1.588   .     S
C824   O827    1.211   .     A
C824   O828    1.249   .     A
C825   C826    1.290   .     A
C825   C1738   1.399   .     A
C826   C1739   1.460   .     A
O827   Cu1172  1.943   1_556 S
O828   Cu1240  1.975   1_556 S
H829   C832    0.941   .     S
C830   C831    1.588   .     S
C830   O833    1.211   .     A
C830   O834    1.249   .     A
C831   C832    1.290   .     A
C831   C1746   1.399   .     A
C832   C1747   1.460   .     A
O833   Cu1196  1.943   1_556 S
O834   Cu1237  1.975   1_556 S
H835   C838    0.941   .     S
C836   C837    1.588   .     S
C836   O839    1.211   .     A
C836   O840    1.249   .     A
C837   C838    1.290   .     A
C837   C1754   1.399   .     A
C838   C1755   1.460   .     A
O839   Cu1195  1.943   .     S
O840   Cu1238  1.975   .     S
H841   C844    0.941   .     S
C842   C843    1.588   .     S
C842   O845    1.211   .     A
C842   O846    1.249   .     A
C843   C844    1.290   .     A
C843   C1634   1.399   .     A
C844   C1635   1.460   .     A
O845   Cu1169  1.943   .     S
O846   Cu1235  1.975   .     S
H847   C850    0.941   .     S
C848   C849    1.588   .     S
C848   O851    1.211   .     A
C848   O852    1.249   .     A
C849   C850    1.290   .     A
C849   C1642   1.399   .     A
C850   C1643   1.460   .     A
O851   Cu1170  1.943   .     S
O852   Cu1236  1.975   .     S
H853   C856    0.941   .     S
C854   C855    1.588   .     S
C854   O857    1.211   .     A
C854   O858    1.249   .     A
C855   C856    1.290   .     A
C855   C1650   1.399   .     A
C856   C1651   1.460   .     A
O857   Cu1200  1.943   .     S
O858   Cu1233  1.975   .     S
H859   C862    0.941   .     S
C860   C861    1.588   .     S
C860   O863    1.211   .     A
C860   O864    1.249   .     A
C861   C862    1.290   .     A
C861   C1658   1.399   .     A
C862   C1659   1.460   .     A
O863   Cu1199  1.943   .     S
O864   Cu1234  1.975   .     S
H865   C868    0.941   .     S
C866   C867    1.588   .     S
C866   O869    1.211   .     A
C866   O870    1.249   .     A
C867   C868    1.290   .     A
C867   C1602   1.399   .     A
C868   C1603   1.460   .     A
O869   Cu1183  1.943   .     S
O870   Cu1224  1.975   .     S
H871   C874    0.941   .     S
C872   C873    1.588   .     S
C872   O875    1.211   .     A
C872   O876    1.249   .     A
C873   C874    1.290   .     A
C873   C1610   1.399   .     A
C874   C1611   1.460   .     A
O875   Cu1184  1.943   .     S
O876   Cu1223  1.975   .     S
H877   C880    0.941   .     S
C878   C879    1.588   .     S
C878   O881    1.211   .     A
C878   O882    1.249   .     A
C879   C880    1.290   .     A
C879   C1618   1.399   .     A
C880   C1619   1.460   .     A
O881   Cu1163  1.943   .     S
O882   Cu1222  1.975   .     S
H883   C886    0.941   .     S
C884   C885    1.588   .     S
C884   O887    1.211   .     A
C884   O888    1.249   .     A
C885   C886    1.290   .     A
C885   C1626   1.399   .     A
C886   C1627   1.460   .     A
O887   Cu1164  1.943   .     S
O888   Cu1221  1.975   .     S
H889   C892    0.941   .     S
C890   C891    1.588   .     S
C890   O893    1.211   .     A
C890   O894    1.249   .     A
C891   C892    1.290   .     A
C891   C1506   1.399   .     A
C892   C1507   1.460   .     A
O893   Cu1181  1.943   .     S
O894   Cu1232  1.975   .     S
H895   C898    0.941   .     S
C896   C897    1.588   .     S
C896   O899    1.211   .     A
C896   O900    1.249   .     A
C897   C898    1.290   .     A
C897   C1514   1.399   .     A
C898   C1515   1.460   .     A
O899   Cu1182  1.943   1_565 S
O900   Cu1231  1.975   1_565 S
H901   C904    0.941   .     S
C902   C903    1.588   .     S
C902   O905    1.211   .     A
C902   O906    1.249   .     A
C903   C904    1.290   .     A
C903   C1522   1.399   .     A
C904   C1523   1.460   .     A
O905   Cu1167  1.943   .     S
O906   Cu1230  1.975   .     S
H907   C910    0.941   .     S
C908   C909    1.588   .     S
C908   O911    1.211   .     A
C908   O912    1.249   .     A
C909   C910    1.290   .     A
C909   C1530   1.399   .     A
C910   C1531   1.460   .     A
O911   Cu1168  1.943   1_565 S
O912   Cu1229  1.975   1_565 S
H913   C916    0.941   .     S
C914   C915    1.588   .     S
C914   O917    1.211   .     A
C914   O918    1.249   .     A
C915   C916    1.290   .     A
C915   C1538   1.399   .     A
C916   C1539   1.460   .     A
O917   Cu1179  1.943   .     S
O918   Cu1220  1.975   .     S
H919   C922    0.941   .     S
C920   C921    1.588   .     S
C920   O923    1.211   .     A
C920   O924    1.249   .     A
C921   C922    1.290   .     A
C921   C1546   1.399   .     A
C922   C1547   1.460   .     A
O923   Cu1180  1.943   1_565 S
O924   Cu1219  1.975   1_565 S
H925   C928    0.941   .     S
C926   C927    1.588   .     S
C926   O929    1.211   .     A
C926   O930    1.249   .     A
C927   C928    1.290   .     A
C927   C1554   1.399   .     A
C928   C1555   1.460   .     A
O929   Cu1161  1.943   .     S
O930   Cu1218  1.975   .     S
H931   C934    0.941   .     S
C932   C933    1.588   .     S
C932   O935    1.211   .     A
C932   O936    1.249   .     A
C933   C934    1.290   .     A
C933   C1562   1.399   .     A
C934   C1563   1.460   .     A
O935   Cu1162  1.943   1_565 S
O936   Cu1217  1.975   1_565 S
H937   C940    0.941   .     S
C938   C939    1.588   .     S
C938   O941    1.211   .     A
C938   O942    1.249   .     A
C939   C940    1.290   .     A
C939   C1570   1.399   .     A
C940   C1571   1.460   .     A
O941   Cu1177  1.943   .     S
O942   Cu1228  1.975   .     S
H943   C946    0.941   .     S
C944   C945    1.588   .     S
C944   O947    1.211   .     A
C944   O948    1.249   .     A
C945   C946    1.290   .     A
C945   C1578   1.399   .     A
C946   C1579   1.460   .     A
O947   Cu1178  1.943   .     S
O948   Cu1227  1.975   .     S
H949   C952    0.941   .     S
C950   C951    1.588   .     S
C950   O953    1.211   .     A
C950   O954    1.249   .     A
C951   C952    1.290   .     A
C951   C1586   1.399   .     A
C952   C1587   1.460   .     A
O953   Cu1165  1.943   .     S
O954   Cu1226  1.975   .     S
H955   C958    0.941   .     S
C956   C957    1.588   .     S
C956   O959    1.211   .     A
C956   O960    1.249   .     A
C957   C958    1.290   .     A
C957   C1594   1.399   .     A
C958   C1595   1.460   .     A
O959   Cu1166  1.943   .     S
O960   Cu1225  1.975   .     S
H961   C964    0.941   .     S
C962   C963    1.588   .     S
C962   O965    1.211   .     A
C962   O966    1.249   .     A
C963   C964    1.290   .     A
C963   C1442   1.399   .     A
C964   C1443   1.460   .     A
O965   Cu1191  1.943   .     S
O966   Cu1211  1.975   .     S
H967   C970    0.941   .     S
C968   C969    1.588   .     S
C968   O971    1.211   .     A
C968   O972    1.249   .     A
C969   C970    1.290   .     A
C969   C1450   1.399   .     A
C970   C1451   1.460   .     A
O971   Cu1157  1.943   .     S
O972   Cu1212  1.975   .     S
H973   C976    0.941   .     S
C974   C975    1.588   .     S
C974   O977    1.211   .     A
C974   O978    1.249   .     A
C975   C976    1.290   .     A
C975   C1458   1.399   .     A
C976   C1459   1.460   .     A
O977   Cu1192  1.943   .     S
O978   Cu1209  1.975   .     S
H979   C982    0.941   .     S
C980   C981    1.588   .     S
C980   O983    1.211   .     A
C980   O984    1.249   .     A
C981   C982    1.290   .     A
C981   C1466   1.399   .     A
C982   C1467   1.460   .     A
O983   Cu1158  1.943   .     S
O984   Cu1210  1.975   .     S
H985   C988    0.941   .     S
C986   C987    1.588   .     S
C986   O989    1.211   .     A
C986   O990    1.249   .     A
C987   C988    1.290   .     A
C987   C1410   1.399   .     A
C988   C1411   1.460   .     A
O989   Cu1189  1.943   .     S
O990   Cu1203  1.975   .     S
H991   C994    0.941   .     S
C992   C993    1.588   .     S
C992   O995    1.211   .     A
C992   O996    1.249   .     A
C993   C994    1.290   .     A
C993   C1418   1.399   .     A
C994   C1419   1.460   .     A
O995   Cu1153  1.943   .     S
O996   Cu1204  1.975   .     S
H997   C1000   0.941   .     S
C998   C999    1.588   .     S
C998   O1001   1.211   .     A
C998   O1002   1.249   .     A
C999   C1000   1.290   .     A
C999   C1426   1.399   .     A
C1000  C1427   1.460   .     A
O1001  Cu1190  1.943   1_655 S
O1002  Cu1201  1.975   1_655 S
H1003  C1006   0.941   .     S
C1004  C1005   1.588   .     S
C1004  O1007   1.211   .     A
C1004  O1008   1.249   .     A
C1005  C1006   1.290   .     A
C1005  C1434   1.399   .     A
C1006  C1435   1.460   .     A
O1007  Cu1154  1.943   1_655 S
O1008  Cu1202  1.975   1_655 S
H1009  C1012   0.941   .     S
C1010  C1011   1.588   .     S
C1010  O1013   1.211   .     A
C1010  O1014   1.249   .     A
C1011  C1012   1.290   .     A
C1011  C1378   1.399   .     A
C1012  C1379   1.460   .     A
O1013  Cu1187  1.943   .     S
O1014  Cu1215  1.975   .     S
H1015  C1018   0.941   .     S
C1016  C1017   1.588   .     S
C1016  O1019   1.211   .     A
C1016  O1020   1.249   .     A
C1017  C1018   1.290   .     A
C1017  C1386   1.399   .     A
C1018  C1387   1.460   .     A
O1019  Cu1159  1.943   .     S
O1020  Cu1216  1.975   .     S
H1021  C1024   0.941   .     S
C1022  C1023   1.588   .     S
C1022  O1025   1.211   .     A
C1022  O1026   1.249   .     A
C1023  C1024   1.290   .     A
C1023  C1394   1.399   .     A
C1024  C1395   1.460   .     A
O1025  Cu1188  1.943   1_655 S
O1026  Cu1213  1.975   1_655 S
H1027  C1030   0.941   .     S
C1028  C1029   1.588   .     S
C1028  O1031   1.211   .     A
C1028  O1032   1.249   .     A
C1029  C1030   1.290   .     A
C1029  C1402   1.399   .     A
C1030  C1403   1.460   .     A
O1031  Cu1160  1.943   1_655 S
O1032  Cu1214  1.975   1_655 S
H1033  C1036   0.941   .     S
C1034  C1035   1.588   .     S
C1034  O1037   1.211   .     A
C1034  O1038   1.249   .     A
C1035  C1036   1.290   .     A
C1035  C1474   1.399   .     A
C1036  C1475   1.460   .     A
O1037  Cu1185  1.943   .     S
O1038  Cu1207  1.975   .     S
H1039  C1042   0.941   .     S
C1040  C1041   1.588   .     S
C1040  O1043   1.211   .     A
C1040  O1044   1.249   .     A
C1041  C1042   1.290   .     A
C1041  C1482   1.399   .     A
C1042  C1483   1.460   .     A
O1043  Cu1155  1.943   .     S
O1044  Cu1208  1.975   .     S
H1045  C1048   0.941   .     S
C1046  C1047   1.588   .     S
C1046  O1049   1.211   .     A
C1046  O1050   1.249   .     A
C1047  C1048   1.290   .     A
C1047  C1490   1.399   .     A
C1048  C1491   1.460   .     A
O1049  Cu1186  1.943   .     S
O1050  Cu1205  1.975   .     S
H1051  C1054   0.941   .     S
C1052  C1053   1.588   .     S
C1052  O1055   1.211   .     A
C1052  O1056   1.249   .     A
C1053  C1054   1.290   .     A
C1053  C1498   1.399   .     A
C1054  C1499   1.460   .     A
O1055  Cu1156  1.943   .     S
O1056  Cu1206  1.975   .     S
H1057  C1060   0.941   .     S
C1058  C1059   1.588   .     S
C1058  O1061   1.211   .     A
C1058  O1062   1.249   .     A
C1059  C1060   1.290   .     A
C1059  C1282   1.399   .     A
C1060  C1283   1.460   .     A
O1061  Cu1199  1.943   .     S
O1062  Cu1234  1.975   .     S
H1063  C1066   0.941   .     S
C1064  C1065   1.588   .     S
C1064  O1067   1.211   .     A
C1064  O1068   1.249   .     A
C1065  C1066   1.290   .     A
C1065  C1290   1.399   .     A
C1066  C1291   1.460   .     A
O1067  Cu1200  1.943   1_556 S
O1068  Cu1233  1.975   1_556 S
H1069  C1072   0.941   .     S
C1070  C1071   1.588   .     S
C1070  O1073   1.211   .     A
C1070  O1074   1.249   .     A
C1071  C1072   1.290   .     A
C1071  C1298   1.399   .     A
C1072  C1299   1.460   .     A
O1073  Cu1170  1.943   1_556 S
O1074  Cu1236  1.975   1_556 S
H1075  C1078   0.941   .     S
C1076  C1077   1.588   .     S
C1076  O1079   1.211   .     A
C1076  O1080   1.249   .     A
C1077  C1078   1.290   .     A
C1077  C1306   1.399   .     A
C1078  C1307   1.460   .     A
O1079  Cu1169  1.943   .     S
O1080  Cu1235  1.975   .     S
H1081  C1084   0.941   .     S
C1082  C1083   1.588   .     S
C1082  O1085   1.211   .     A
C1082  O1086   1.249   .     A
C1083  C1084   1.290   .     A
C1083  C1314   1.399   .     A
C1084  C1315   1.460   .     A
O1085  Cu1197  1.943   .     S
O1086  Cu1242  1.975   .     S
H1087  C1090   0.941   .     S
C1088  C1089   1.588   .     S
C1088  O1091   1.211   .     A
C1088  O1092   1.249   .     A
C1089  C1090   1.290   .     A
C1089  C1322   1.399   .     A
C1090  C1323   1.460   .     A
O1091  Cu1198  1.943   .     S
O1092  Cu1241  1.975   .     S
H1093  C1096   0.941   .     S
C1094  C1095   1.588   .     S
C1094  O1097   1.211   .     A
C1094  O1098   1.249   .     A
C1095  C1096   1.290   .     A
C1095  C1330   1.399   .     A
C1096  C1331   1.460   .     A
O1097  Cu1174  1.943   .     S
O1098  Cu1244  1.975   .     S
H1099  C1102   0.941   .     S
C1100  C1101   1.588   .     S
C1100  O1103   1.211   .     A
C1100  O1104   1.249   .     A
C1101  C1102   1.290   .     A
C1101  C1338   1.399   .     A
C1102  C1339   1.460   .     A
O1103  Cu1173  1.943   .     S
O1104  Cu1243  1.975   .     S
H1105  C1108   0.941   .     S
C1106  C1107   1.588   .     S
C1106  O1109   1.211   .     A
C1106  O1110   1.249   .     A
C1107  C1108   1.290   .     A
C1107  C1346   1.399   .     A
C1108  C1347   1.460   .     A
O1109  Cu1195  1.943   .     S
O1110  Cu1238  1.975   .     S
H1111  C1114   0.941   .     S
C1112  C1113   1.588   .     S
C1112  O1115   1.211   .     A
C1112  O1116   1.249   .     A
C1113  C1114   1.290   .     A
C1113  C1354   1.399   .     A
C1114  C1355   1.460   .     A
O1115  Cu1196  1.943   .     S
O1116  Cu1237  1.975   .     S
H1117  C1120   0.941   .     S
C1118  C1119   1.588   .     S
C1118  O1121   1.211   .     A
C1118  O1122   1.249   .     A
C1119  C1120   1.290   .     A
C1119  C1362   1.399   .     A
C1120  C1363   1.460   .     A
O1121  Cu1172  1.943   .     S
O1122  Cu1240  1.975   .     S
H1123  C1126   0.941   .     S
C1124  C1125   1.588   .     S
C1124  O1127   1.211   .     A
C1124  O1128   1.249   .     A
C1125  C1126   1.290   .     A
C1125  C1370   1.399   .     A
C1126  C1371   1.460   .     A
O1127  Cu1171  1.943   .     S
O1128  Cu1239  1.975   .     S
H1129  C1132   0.941   .     S
C1130  C1131   1.588   .     S
C1130  O1133   1.211   .     A
C1130  O1134   1.249   .     A
C1131  C1132   1.290   .     A
C1131  C1250   1.399   .     A
C1132  C1251   1.460   .     A
O1133  Cu1193  1.943   .     S
O1134  Cu1246  1.975   .     S
H1135  C1138   0.941   .     S
C1136  C1137   1.588   .     S
C1136  O1139   1.211   .     A
C1136  O1140   1.249   .     A
C1137  C1138   1.290   .     A
C1137  C1258   1.399   .     A
C1138  C1259   1.460   .     A
O1139  Cu1194  1.943   1_556 S
O1140  Cu1245  1.975   1_556 S
H1141  C1144   0.941   .     S
C1142  C1143   1.588   .     S
C1142  O1145   1.211   .     A
C1142  O1146   1.249   .     A
C1143  C1144   1.290   .     A
C1143  C1266   1.399   .     A
C1144  C1267   1.460   .     A
O1145  Cu1176  1.943   1_556 S
O1146  Cu1248  1.975   1_556 S
H1147  C1150   0.941   .     S
C1148  C1149   1.588   .     S
C1148  O1151   1.211   .     A
C1148  O1152   1.249   .     A
C1149  C1150   1.290   .     A
C1149  C1274   1.399   .     A
C1150  C1275   1.460   .     A
O1151  Cu1175  1.943   .     S
O1152  Cu1247  1.975   .     S
Cu1153 Cu1204  2.659   .     S
Cu1154 Cu1202  2.659   .     S
Cu1154 O17     1.943   1_455 S
Cu1154 O1007   1.943   1_455 S
Cu1155 Cu1208  2.659   .     S
Cu1156 Cu1206  2.659   .     S
Cu1156 O641    1.943   1_455 S
Cu1156 O407    1.943   1_455 S
Cu1157 Cu1212  2.659   .     S
Cu1158 Cu1210  2.659   .     S
Cu1158 O617    1.943   1_455 S
Cu1158 O479    1.943   1_455 S
Cu1159 Cu1216  2.659   .     S
Cu1160 Cu1214  2.659   .     S
Cu1160 O89     1.943   1_455 S
Cu1160 O1031   1.943   1_455 S
Cu1161 Cu1218  2.659   .     S
Cu1162 Cu1217  2.659   .     S
Cu1162 O107    1.943   1_545 S
Cu1162 O935    1.943   1_545 S
Cu1163 Cu1222  2.659   .     S
Cu1164 Cu1221  2.659   .     S
Cu1164 O731    1.943   1_545 S
Cu1164 O383    1.943   1_545 S
Cu1165 Cu1226  2.659   .     S
Cu1166 Cu1225  2.659   .     S
Cu1166 O707    1.943   1_545 S
Cu1166 O311    1.943   1_545 S
Cu1167 Cu1230  2.659   .     S
Cu1168 Cu1229  2.659   .     S
Cu1168 O179    1.943   1_545 S
Cu1168 O911    1.943   1_545 S
Cu1169 Cu1235  2.659   .     S
Cu1170 Cu1236  2.659   .     S
Cu1170 O203    1.943   1_554 S
Cu1170 O1073   1.943   1_554 S
Cu1171 Cu1239  2.659   .     S
Cu1172 Cu1240  2.659   .     S
Cu1172 O827    1.943   1_554 S
Cu1172 O521    1.943   1_554 S
Cu1173 Cu1243  2.659   .     S
Cu1174 Cu1244  2.659   .     S
Cu1174 O803    1.943   1_554 S
Cu1174 O545    1.943   1_554 S
Cu1175 Cu1247  2.659   .     S
Cu1176 Cu1248  2.659   .     S
Cu1176 O275    1.943   1_554 S
Cu1176 O1145   1.943   1_554 S
Cu1177 Cu1228  2.659   .     S
Cu1178 Cu1227  2.659   .     S
Cu1178 O299    1.943   1_545 S
Cu1178 O719    1.943   1_545 S
Cu1179 Cu1220  2.659   .     S
Cu1180 Cu1219  2.659   .     S
Cu1180 O923    1.943   1_545 S
Cu1180 O119    1.943   1_545 S
Cu1181 Cu1232  2.659   .     S
Cu1182 Cu1231  2.659   .     S
Cu1182 O899    1.943   1_545 S
Cu1182 O191    1.943   1_545 S
Cu1183 Cu1224  2.659   .     S
Cu1184 Cu1223  2.659   .     S
Cu1184 O371    1.943   1_545 S
Cu1184 O743    1.943   1_545 S
Cu1185 Cu1207  2.659   .     S
Cu1186 Cu1205  2.659   .     S
Cu1186 O401    1.943   1_455 S
Cu1186 O647    1.943   1_455 S
Cu1187 Cu1215  2.659   .     S
Cu1188 Cu1213  2.659   .     S
Cu1188 O1025   1.943   1_455 S
Cu1188 O95     1.943   1_455 S
Cu1189 Cu1203  2.659   .     S
Cu1190 Cu1201  2.659   .     S
Cu1190 O1001   1.943   1_455 S
Cu1190 O23     1.943   1_455 S
Cu1191 Cu1211  2.659   .     S
Cu1192 Cu1209  2.659   .     S
Cu1192 O473    1.943   1_455 S
Cu1192 O623    1.943   1_455 S
Cu1193 Cu1246  2.659   .     S
Cu1194 Cu1245  2.659   .     S
Cu1194 O1139   1.943   1_554 S
Cu1194 O281    1.943   1_554 S
Cu1195 Cu1238  2.659   .     S
Cu1196 Cu1237  2.659   .     S
Cu1196 O515    1.943   1_554 S
Cu1196 O833    1.943   1_554 S
Cu1197 Cu1242  2.659   .     S
Cu1198 Cu1241  2.659   .     S
Cu1198 O539    1.943   1_554 S
Cu1198 O809    1.943   1_554 S
Cu1199 Cu1234  2.659   .     S
Cu1200 Cu1233  2.659   .     S
Cu1200 O1067   1.943   1_554 S
Cu1200 O209    1.943   1_554 S
Cu1201 O24     1.975   1_455 S
Cu1201 O1002   1.975   1_455 S
Cu1202 O18     1.975   1_455 S
Cu1202 O1008   1.975   1_455 S
Cu1205 O402    1.975   1_455 S
Cu1205 O648    1.975   1_455 S
Cu1206 O408    1.975   1_455 S
Cu1206 O642    1.975   1_455 S
Cu1209 O474    1.975   1_455 S
Cu1209 O624    1.975   1_455 S
Cu1210 O480    1.975   1_455 S
Cu1210 O618    1.975   1_455 S
Cu1213 O96     1.975   1_455 S
Cu1213 O1026   1.975   1_455 S
Cu1214 O90     1.975   1_455 S
Cu1214 O1032   1.975   1_455 S
Cu1217 O108    1.975   1_545 S
Cu1217 O936    1.975   1_545 S
Cu1219 O120    1.975   1_545 S
Cu1219 O924    1.975   1_545 S
Cu1221 O384    1.975   1_545 S
Cu1221 O732    1.975   1_545 S
Cu1223 O372    1.975   1_545 S
Cu1223 O744    1.975   1_545 S
Cu1225 O312    1.975   1_545 S
Cu1225 O708    1.975   1_545 S
Cu1227 O300    1.975   1_545 S
Cu1227 O720    1.975   1_545 S
Cu1229 O180    1.975   1_545 S
Cu1229 O912    1.975   1_545 S
Cu1231 O192    1.975   1_545 S
Cu1231 O900    1.975   1_545 S
Cu1233 O210    1.975   1_554 S
Cu1233 O1068   1.975   1_554 S
Cu1236 O204    1.975   1_554 S
Cu1236 O1074   1.975   1_554 S
Cu1237 O516    1.975   1_554 S
Cu1237 O834    1.975   1_554 S
Cu1240 O522    1.975   1_554 S
Cu1240 O828    1.975   1_554 S
Cu1241 O540    1.975   1_554 S
Cu1241 O810    1.975   1_554 S
Cu1244 O546    1.975   1_554 S
Cu1244 O804    1.975   1_554 S
Cu1245 O282    1.975   1_554 S
Cu1245 O1140   1.975   1_554 S
Cu1248 O276    1.975   1_554 S
Cu1248 O1146   1.975   1_554 S
H1249  C1250   0.940   .     S
C1251  C1252   1.481   .     S
C1252  C1253   1.181   .     T
C1253  C1254   1.361   .     S
C1254  C1255   1.190   .     T
C1255  C1256   1.435   .     S
C1256  C2018   1.374   .     A
C1256  C2082   1.374   .     A
H1257  C1258   0.940   .     S
C1259  C1260   1.481   .     S
C1260  C1261   1.181   .     T
C1261  C1262   1.361   .     S
C1262  C1263   1.190   .     T
C1263  C1264   1.435   .     S
C1264  C2020   1.374   .     A
C1264  C2084   1.374   .     A
H1265  C1266   0.940   .     S
C1267  C1268   1.481   .     S
C1268  C1269   1.181   .     T
C1269  C1270   1.361   .     S
C1270  C1271   1.190   .     T
C1271  C1272   1.435   .     S
C1272  C2022   1.374   .     A
C1272  C2086   1.374   .     A
H1273  C1274   0.940   .     S
C1275  C1276   1.481   .     S
C1276  C1277   1.181   .     T
C1277  C1278   1.361   .     S
C1278  C1279   1.190   .     T
C1279  C1280   1.435   .     S
C1280  C2024   1.374   .     A
C1280  C2088   1.374   .     A
H1281  C1282   0.940   .     S
C1283  C1284   1.481   .     S
C1284  C1285   1.181   .     T
C1285  C1286   1.361   .     S
C1286  C1287   1.190   .     T
C1287  C1288   1.435   .     S
C1288  C2026   1.374   .     A
C1288  C2106   1.374   .     A
H1289  C1290   0.940   .     S
C1291  C1292   1.481   .     S
C1292  C1293   1.181   .     T
C1293  C1294   1.361   .     S
C1294  C1295   1.190   .     T
C1295  C1296   1.435   .     S
C1296  C2028   1.374   .     A
C1296  C2108   1.374   .     A
H1297  C1298   0.940   .     S
C1299  C1300   1.481   .     S
C1300  C1301   1.181   .     T
C1301  C1302   1.361   .     S
C1302  C1303   1.190   .     T
C1303  C1304   1.435   .     S
C1304  C2030   1.374   .     A
C1304  C2110   1.374   .     A
H1305  C1306   0.940   .     S
C1307  C1308   1.481   .     S
C1308  C1309   1.181   .     T
C1309  C1310   1.361   .     S
C1310  C1311   1.190   .     T
C1311  C1312   1.435   .     S
C1312  C2032   1.374   .     A
C1312  C2112   1.374   .     A
H1313  C1314   0.940   .     S
C1315  C1316   1.481   .     S
C1316  C1317   1.181   .     T
C1317  C1318   1.361   .     S
C1318  C1319   1.190   .     T
C1319  C1320   1.435   .     S
C1320  C2034   1.374   .     A
C1320  C2090   1.374   .     A
H1321  C1322   0.940   .     S
C1323  C1324   1.481   .     S
C1324  C1325   1.181   .     T
C1325  C1326   1.361   .     S
C1326  C1327   1.190   .     T
C1327  C1328   1.435   .     S
C1328  C2036   1.374   .     A
C1328  C2092   1.374   .     A
H1329  C1330   0.940   .     S
C1331  C1332   1.481   .     S
C1332  C1333   1.181   .     T
C1333  C1334   1.361   .     S
C1334  C1335   1.190   .     T
C1335  C1336   1.435   .     S
C1336  C2038   1.374   .     A
C1336  C2094   1.374   .     A
H1337  C1338   0.940   .     S
C1339  C1340   1.481   .     S
C1340  C1341   1.181   .     T
C1341  C1342   1.361   .     S
C1342  C1343   1.190   .     T
C1343  C1344   1.435   .     S
C1344  C2040   1.374   .     A
C1344  C2096   1.374   .     A
H1345  C1346   0.940   .     S
C1347  C1348   1.481   .     S
C1348  C1349   1.181   .     T
C1349  C1350   1.361   .     S
C1350  C1351   1.190   .     T
C1351  C1352   1.435   .     S
C1352  C2042   1.374   .     A
C1352  C2098   1.374   .     A
H1353  C1354   0.940   .     S
C1355  C1356   1.481   .     S
C1356  C1357   1.181   .     T
C1357  C1358   1.361   .     S
C1358  C1359   1.190   .     T
C1359  C1360   1.435   .     S
C1360  C2044   1.374   .     A
C1360  C2100   1.374   .     A
H1361  C1362   0.940   .     S
C1363  C1364   1.481   .     S
C1364  C1365   1.181   .     T
C1365  C1366   1.361   .     S
C1366  C1367   1.190   .     T
C1367  C1368   1.435   .     S
C1368  C2046   1.374   .     A
C1368  C2102   1.374   .     A
H1369  C1370   0.940   .     S
C1371  C1372   1.481   .     S
C1372  C1373   1.181   .     T
C1373  C1374   1.361   .     S
C1374  C1375   1.190   .     T
C1375  C1376   1.435   .     S
C1376  C2048   1.374   .     A
C1376  C2104   1.374   .     A
H1377  C1378   0.940   .     S
C1379  C1380   1.481   .     S
C1380  C1381   1.181   .     T
C1381  C1382   1.361   .     S
C1382  C1383   1.190   .     T
C1383  C1384   1.435   .     S
C1384  C2050   1.374   .     A
C1384  C2018   1.374   .     A
H1385  C1386   0.940   .     S
C1387  C1388   1.481   .     S
C1388  C1389   1.181   .     T
C1389  C1390   1.361   .     S
C1390  C1391   1.190   .     T
C1391  C1392   1.435   .     S
C1392  C2052   1.374   .     A
C1392  C2020   1.374   .     A
H1393  C1394   0.940   .     S
C1395  C1396   1.481   .     S
C1396  C1397   1.181   .     T
C1397  C1398   1.361   .     S
C1398  C1399   1.190   .     T
C1399  C1400   1.435   .     S
C1400  C2054   1.374   .     A
C1400  C2022   1.374   .     A
H1401  C1402   0.940   .     S
C1403  C1404   1.481   .     S
C1404  C1405   1.181   .     T
C1405  C1406   1.361   .     S
C1406  C1407   1.190   .     T
C1407  C1408   1.435   .     S
C1408  C2056   1.374   .     A
C1408  C2024   1.374   .     A
H1409  C1410   0.940   .     S
C1411  C1412   1.481   .     S
C1412  C1413   1.181   .     T
C1413  C1414   1.361   .     S
C1414  C1415   1.190   .     T
C1415  C1416   1.435   .     S
C1416  C2058   1.374   .     A
C1416  C2042   1.374   .     A
H1417  C1418   0.940   .     S
C1419  C1420   1.481   .     S
C1420  C1421   1.181   .     T
C1421  C1422   1.361   .     S
C1422  C1423   1.190   .     T
C1423  C1424   1.435   .     S
C1424  C2060   1.374   .     A
C1424  C2044   1.374   .     A
H1425  C1426   0.940   .     S
C1427  C1428   1.481   .     S
C1428  C1429   1.181   .     T
C1429  C1430   1.361   .     S
C1430  C1431   1.190   .     T
C1431  C1432   1.435   .     S
C1432  C2062   1.374   .     A
C1432  C2046   1.374   .     A
H1433  C1434   0.940   .     S
C1435  C1436   1.481   .     S
C1436  C1437   1.181   .     T
C1437  C1438   1.361   .     S
C1438  C1439   1.190   .     T
C1439  C1440   1.435   .     S
C1440  C2064   1.374   .     A
C1440  C2048   1.374   .     A
H1441  C1442   0.940   .     S
C1443  C1444   1.481   .     S
C1444  C1445   1.181   .     T
C1445  C1446   1.361   .     S
C1446  C1447   1.190   .     T
C1447  C1448   1.435   .     S
C1448  C2066   1.374   .     A
C1448  C2026   1.374   .     A
H1449  C1450   0.940   .     S
C1451  C1452   1.481   .     S
C1452  C1453   1.181   .     T
C1453  C1454   1.361   .     S
C1454  C1455   1.190   .     T
C1455  C1456   1.435   .     S
C1456  C2068   1.374   .     A
C1456  C2028   1.374   .     A
H1457  C1458   0.940   .     S
C1459  C1460   1.481   .     S
C1460  C1461   1.181   .     T
C1461  C1462   1.361   .     S
C1462  C1463   1.190   .     T
C1463  C1464   1.435   .     S
C1464  C2070   1.374   .     A
C1464  C2030   1.374   .     A
H1465  C1466   0.940   .     S
C1467  C1468   1.481   .     S
C1468  C1469   1.181   .     T
C1469  C1470   1.361   .     S
C1470  C1471   1.190   .     T
C1471  C1472   1.435   .     S
C1472  C2072   1.374   .     A
C1472  C2032   1.374   .     A
H1473  C1474   0.940   .     S
C1475  C1476   1.481   .     S
C1476  C1477   1.181   .     T
C1477  C1478   1.361   .     S
C1478  C1479   1.190   .     T
C1479  C1480   1.435   .     S
C1480  C2074   1.374   .     A
C1480  C2034   1.374   .     A
H1481  C1482   0.940   .     S
C1483  C1484   1.481   .     S
C1484  C1485   1.181   .     T
C1485  C1486   1.361   .     S
C1486  C1487   1.190   .     T
C1487  C1488   1.435   .     S
C1488  C2076   1.374   .     A
C1488  C2036   1.374   .     A
H1489  C1490   0.940   .     S
C1491  C1492   1.481   .     S
C1492  C1493   1.181   .     T
C1493  C1494   1.361   .     S
C1494  C1495   1.190   .     T
C1495  C1496   1.435   .     S
C1496  C2078   1.374   .     A
C1496  C2038   1.374   .     A
H1497  C1498   0.940   .     S
C1499  C1500   1.481   .     S
C1500  C1501   1.181   .     T
C1501  C1502   1.361   .     S
C1502  C1503   1.190   .     T
C1503  C1504   1.435   .     S
C1504  C2080   1.374   .     A
C1504  C2040   1.374   .     A
H1505  C1506   0.940   .     S
C1507  C1508   1.481   .     S
C1508  C1509   1.181   .     T
C1509  C1510   1.361   .     S
C1510  C1511   1.190   .     T
C1511  C1512   1.435   .     S
C1512  C2082   1.374   .     A
C1512  C2050   1.374   .     A
H1513  C1514   0.940   .     S
C1515  C1516   1.481   .     S
C1516  C1517   1.181   .     T
C1517  C1518   1.361   .     S
C1518  C1519   1.190   .     T
C1519  C1520   1.435   .     S
C1520  C2084   1.374   .     A
C1520  C2052   1.374   .     A
H1521  C1522   0.940   .     S
C1523  C1524   1.481   .     S
C1524  C1525   1.181   .     T
C1525  C1526   1.361   .     S
C1526  C1527   1.190   .     T
C1527  C1528   1.435   .     S
C1528  C2086   1.374   .     A
C1528  C2054   1.374   .     A
H1529  C1530   0.940   .     S
C1531  C1532   1.481   .     S
C1532  C1533   1.181   .     T
C1533  C1534   1.361   .     S
C1534  C1535   1.190   .     T
C1535  C1536   1.435   .     S
C1536  C2088   1.374   .     A
C1536  C2056   1.374   .     A
H1537  C1538   0.940   .     S
C1539  C1540   1.481   .     S
C1540  C1541   1.181   .     T
C1541  C1542   1.361   .     S
C1542  C1543   1.190   .     T
C1543  C1544   1.435   .     S
C1544  C2090   1.374   .     A
C1544  C2074   1.374   .     A
H1545  C1546   0.940   .     S
C1547  C1548   1.481   .     S
C1548  C1549   1.181   .     T
C1549  C1550   1.361   .     S
C1550  C1551   1.190   .     T
C1551  C1552   1.435   .     S
C1552  C2092   1.374   .     A
C1552  C2076   1.374   .     A
H1553  C1554   0.940   .     S
C1555  C1556   1.481   .     S
C1556  C1557   1.181   .     T
C1557  C1558   1.361   .     S
C1558  C1559   1.190   .     T
C1559  C1560   1.435   .     S
C1560  C2094   1.374   .     A
C1560  C2078   1.374   .     A
H1561  C1562   0.940   .     S
C1563  C1564   1.481   .     S
C1564  C1565   1.181   .     T
C1565  C1566   1.361   .     S
C1566  C1567   1.190   .     T
C1567  C1568   1.435   .     S
C1568  C2096   1.374   .     A
C1568  C2080   1.374   .     A
H1569  C1570   0.940   .     S
C1571  C1572   1.481   .     S
C1572  C1573   1.181   .     T
C1573  C1574   1.361   .     S
C1574  C1575   1.190   .     T
C1575  C1576   1.435   .     S
C1576  C2098   1.374   .     A
C1576  C2058   1.374   .     A
H1577  C1578   0.940   .     S
C1579  C1580   1.481   .     S
C1580  C1581   1.181   .     T
C1581  C1582   1.361   .     S
C1582  C1583   1.190   .     T
C1583  C1584   1.435   .     S
C1584  C2100   1.374   .     A
C1584  C2060   1.374   .     A
H1585  C1586   0.940   .     S
C1587  C1588   1.481   .     S
C1588  C1589   1.181   .     T
C1589  C1590   1.361   .     S
C1590  C1591   1.190   .     T
C1591  C1592   1.435   .     S
C1592  C2102   1.374   .     A
C1592  C2062   1.374   .     A
H1593  C1594   0.940   .     S
C1595  C1596   1.481   .     S
C1596  C1597   1.181   .     T
C1597  C1598   1.361   .     S
C1598  C1599   1.190   .     T
C1599  C1600   1.435   .     S
C1600  C2104   1.374   .     A
C1600  C2064   1.374   .     A
H1601  C1602   0.940   .     S
C1603  C1604   1.481   .     S
C1604  C1605   1.181   .     T
C1605  C1606   1.361   .     S
C1606  C1607   1.190   .     T
C1607  C1608   1.435   .     S
C1608  C2106   1.374   .     A
C1608  C2066   1.374   .     A
H1609  C1610   0.940   .     S
C1611  C1612   1.481   .     S
C1612  C1613   1.181   .     T
C1613  C1614   1.361   .     S
C1614  C1615   1.190   .     T
C1615  C1616   1.435   .     S
C1616  C2108   1.374   .     A
C1616  C2068   1.374   .     A
H1617  C1618   0.940   .     S
C1619  C1620   1.481   .     S
C1620  C1621   1.181   .     T
C1621  C1622   1.361   .     S
C1622  C1623   1.190   .     T
C1623  C1624   1.435   .     S
C1624  C2110   1.374   .     A
C1624  C2070   1.374   .     A
H1625  C1626   0.940   .     S
C1627  C1628   1.481   .     S
C1628  C1629   1.181   .     T
C1629  C1630   1.361   .     S
C1630  C1631   1.190   .     T
C1631  C1632   1.435   .     S
C1632  C2112   1.374   .     A
C1632  C2072   1.374   .     A
H1633  C1634   0.940   .     S
C1635  C1636   1.481   .     S
C1636  C1637   1.181   .     T
C1637  C1638   1.361   .     S
C1638  C1639   1.190   .     T
C1639  C1640   1.435   .     S
C1640  C2114   1.374   .     A
C1640  C2178   1.374   .     A
H1641  C1642   0.940   .     S
C1643  C1644   1.481   .     S
C1644  C1645   1.181   .     T
C1645  C1646   1.361   .     S
C1646  C1647   1.190   .     T
C1647  C1648   1.435   .     S
C1648  C2116   1.374   .     A
C1648  C2180   1.374   .     A
H1649  C1650   0.940   .     S
C1651  C1652   1.481   .     S
C1652  C1653   1.181   .     T
C1653  C1654   1.361   .     S
C1654  C1655   1.190   .     T
C1655  C1656   1.435   .     S
C1656  C2118   1.374   .     A
C1656  C2182   1.374   .     A
H1657  C1658   0.940   .     S
C1659  C1660   1.481   .     S
C1660  C1661   1.181   .     T
C1661  C1662   1.361   .     S
C1662  C1663   1.190   .     T
C1663  C1664   1.435   .     S
C1664  C2120   1.374   .     A
C1664  C2184   1.374   .     A
H1665  C1666   0.940   .     S
C1667  C1668   1.481   .     S
C1668  C1669   1.181   .     T
C1669  C1670   1.361   .     S
C1670  C1671   1.190   .     T
C1671  C1672   1.435   .     S
C1672  C2122   1.374   .     A
C1672  C2202   1.374   .     A
H1673  C1674   0.940   .     S
C1675  C1676   1.481   .     S
C1676  C1677   1.181   .     T
C1677  C1678   1.361   .     S
C1678  C1679   1.190   .     T
C1679  C1680   1.435   .     S
C1680  C2124   1.374   .     A
C1680  C2204   1.374   .     A
H1681  C1682   0.940   .     S
C1683  C1684   1.481   .     S
C1684  C1685   1.181   .     T
C1685  C1686   1.361   .     S
C1686  C1687   1.190   .     T
C1687  C1688   1.435   .     S
C1688  C2126   1.374   .     A
C1688  C2206   1.374   .     A
H1689  C1690   0.940   .     S
C1691  C1692   1.481   .     S
C1692  C1693   1.181   .     T
C1693  C1694   1.361   .     S
C1694  C1695   1.190   .     T
C1695  C1696   1.435   .     S
C1696  C2128   1.374   .     A
C1696  C2208   1.374   .     A
H1697  C1698   0.940   .     S
C1699  C1700   1.481   .     S
C1700  C1701   1.181   .     T
C1701  C1702   1.361   .     S
C1702  C1703   1.190   .     T
C1703  C1704   1.435   .     S
C1704  C2130   1.374   .     A
C1704  C2186   1.374   .     A
H1705  C1706   0.940   .     S
C1707  C1708   1.481   .     S
C1708  C1709   1.181   .     T
C1709  C1710   1.361   .     S
C1710  C1711   1.190   .     T
C1711  C1712   1.435   .     S
C1712  C2132   1.374   .     A
C1712  C2188   1.374   .     A
H1713  C1714   0.940   .     S
C1715  C1716   1.481   .     S
C1716  C1717   1.181   .     T
C1717  C1718   1.361   .     S
C1718  C1719   1.190   .     T
C1719  C1720   1.435   .     S
C1720  C2134   1.374   .     A
C1720  C2190   1.374   .     A
H1721  C1722   0.940   .     S
C1723  C1724   1.481   .     S
C1724  C1725   1.181   .     T
C1725  C1726   1.361   .     S
C1726  C1727   1.190   .     T
C1727  C1728   1.435   .     S
C1728  C2136   1.374   .     A
C1728  C2192   1.374   .     A
H1729  C1730   0.940   .     S
C1731  C1732   1.481   .     S
C1732  C1733   1.181   .     T
C1733  C1734   1.361   .     S
C1734  C1735   1.190   .     T
C1735  C1736   1.435   .     S
C1736  C2138   1.374   .     A
C1736  C2194   1.374   .     A
H1737  C1738   0.940   .     S
C1739  C1740   1.481   .     S
C1740  C1741   1.181   .     T
C1741  C1742   1.361   .     S
C1742  C1743   1.190   .     T
C1743  C1744   1.435   .     S
C1744  C2140   1.374   .     A
C1744  C2196   1.374   .     A
H1745  C1746   0.940   .     S
C1747  C1748   1.481   .     S
C1748  C1749   1.181   .     T
C1749  C1750   1.361   .     S
C1750  C1751   1.190   .     T
C1751  C1752   1.435   .     S
C1752  C2142   1.374   .     A
C1752  C2198   1.374   .     A
H1753  C1754   0.940   .     S
C1755  C1756   1.481   .     S
C1756  C1757   1.181   .     T
C1757  C1758   1.361   .     S
C1758  C1759   1.190   .     T
C1759  C1760   1.435   .     S
C1760  C2144   1.374   .     A
C1760  C2200   1.374   .     A
H1761  C1762   0.940   .     S
C1763  C1764   1.481   .     S
C1764  C1765   1.181   .     T
C1765  C1766   1.361   .     S
C1766  C1767   1.190   .     T
C1767  C1768   1.435   .     S
C1768  C2146   1.374   .     A
C1768  C2114   1.374   .     A
H1769  C1770   0.940   .     S
C1771  C1772   1.481   .     S
C1772  C1773   1.181   .     T
C1773  C1774   1.361   .     S
C1774  C1775   1.190   .     T
C1775  C1776   1.435   .     S
C1776  C2148   1.374   .     A
C1776  C2116   1.374   .     A
H1777  C1778   0.940   .     S
C1779  C1780   1.481   .     S
C1780  C1781   1.181   .     T
C1781  C1782   1.361   .     S
C1782  C1783   1.190   .     T
C1783  C1784   1.435   .     S
C1784  C2150   1.374   .     A
C1784  C2118   1.374   .     A
H1785  C1786   0.940   .     S
C1787  C1788   1.481   .     S
C1788  C1789   1.181   .     T
C1789  C1790   1.361   .     S
C1790  C1791   1.190   .     T
C1791  C1792   1.435   .     S
C1792  C2152   1.374   .     A
C1792  C2120   1.374   .     A
H1793  C1794   0.940   .     S
C1795  C1796   1.481   .     S
C1796  C1797   1.181   .     T
C1797  C1798   1.361   .     S
C1798  C1799   1.190   .     T
C1799  C1800   1.435   .     S
C1800  C2154   1.374   .     A
C1800  C2138   1.374   .     A
H1801  C1802   0.940   .     S
C1803  C1804   1.481   .     S
C1804  C1805   1.181   .     T
C1805  C1806   1.361   .     S
C1806  C1807   1.190   .     T
C1807  C1808   1.435   .     S
C1808  C2156   1.374   .     A
C1808  C2140   1.374   .     A
H1809  C1810   0.940   .     S
C1811  C1812   1.481   .     S
C1812  C1813   1.181   .     T
C1813  C1814   1.361   .     S
C1814  C1815   1.190   .     T
C1815  C1816   1.435   .     S
C1816  C2158   1.374   .     A
C1816  C2142   1.374   .     A
H1817  C1818   0.940   .     S
C1819  C1820   1.481   .     S
C1820  C1821   1.181   .     T
C1821  C1822   1.361   .     S
C1822  C1823   1.190   .     T
C1823  C1824   1.435   .     S
C1824  C2160   1.374   .     A
C1824  C2144   1.374   .     A
H1825  C1826   0.940   .     S
C1827  C1828   1.481   .     S
C1828  C1829   1.181   .     T
C1829  C1830   1.361   .     S
C1830  C1831   1.190   .     T
C1831  C1832   1.435   .     S
C1832  C2162   1.374   .     A
C1832  C2122   1.374   .     A
H1833  C1834   0.940   .     S
C1835  C1836   1.481   .     S
C1836  C1837   1.181   .     T
C1837  C1838   1.361   .     S
C1838  C1839   1.190   .     T
C1839  C1840   1.435   .     S
C1840  C2164   1.374   .     A
C1840  C2124   1.374   .     A
H1841  C1842   0.940   .     S
C1843  C1844   1.481   .     S
C1844  C1845   1.181   .     T
C1845  C1846   1.361   .     S
C1846  C1847   1.190   .     T
C1847  C1848   1.435   .     S
C1848  C2166   1.374   .     A
C1848  C2126   1.374   .     A
H1849  C1850   0.940   .     S
C1851  C1852   1.481   .     S
C1852  C1853   1.181   .     T
C1853  C1854   1.361   .     S
C1854  C1855   1.190   .     T
C1855  C1856   1.435   .     S
C1856  C2168   1.374   .     A
C1856  C2128   1.374   .     A
H1857  C1858   0.940   .     S
C1859  C1860   1.481   .     S
C1860  C1861   1.181   .     T
C1861  C1862   1.361   .     S
C1862  C1863   1.190   .     T
C1863  C1864   1.435   .     S
C1864  C2170   1.374   .     A
C1864  C2130   1.374   .     A
H1865  C1866   0.940   .     S
C1867  C1868   1.481   .     S
C1868  C1869   1.181   .     T
C1869  C1870   1.361   .     S
C1870  C1871   1.190   .     T
C1871  C1872   1.435   .     S
C1872  C2172   1.374   .     A
C1872  C2132   1.374   .     A
H1873  C1874   0.940   .     S
C1875  C1876   1.481   .     S
C1876  C1877   1.181   .     T
C1877  C1878   1.361   .     S
C1878  C1879   1.190   .     T
C1879  C1880   1.435   .     S
C1880  C2174   1.374   .     A
C1880  C2134   1.374   .     A
H1881  C1882   0.940   .     S
C1883  C1884   1.481   .     S
C1884  C1885   1.181   .     T
C1885  C1886   1.361   .     S
C1886  C1887   1.190   .     T
C1887  C1888   1.435   .     S
C1888  C2176   1.374   .     A
C1888  C2136   1.374   .     A
H1889  C1890   0.940   .     S
C1891  C1892   1.481   .     S
C1892  C1893   1.181   .     T
C1893  C1894   1.361   .     S
C1894  C1895   1.190   .     T
C1895  C1896   1.435   .     S
C1896  C2178   1.374   .     A
C1896  C2146   1.374   .     A
H1897  C1898   0.940   .     S
C1899  C1900   1.481   .     S
C1900  C1901   1.181   .     T
C1901  C1902   1.361   .     S
C1902  C1903   1.190   .     T
C1903  C1904   1.435   .     S
C1904  C2180   1.374   .     A
C1904  C2148   1.374   .     A
H1905  C1906   0.940   .     S
C1907  C1908   1.481   .     S
C1908  C1909   1.181   .     T
C1909  C1910   1.361   .     S
C1910  C1911   1.190   .     T
C1911  C1912   1.435   .     S
C1912  C2182   1.374   .     A
C1912  C2150   1.374   .     A
H1913  C1914   0.940   .     S
C1915  C1916   1.481   .     S
C1916  C1917   1.181   .     T
C1917  C1918   1.361   .     S
C1918  C1919   1.190   .     T
C1919  C1920   1.435   .     S
C1920  C2184   1.374   .     A
C1920  C2152   1.374   .     A
H1921  C1922   0.940   .     S
C1923  C1924   1.481   .     S
C1924  C1925   1.181   .     T
C1925  C1926   1.361   .     S
C1926  C1927   1.190   .     T
C1927  C1928   1.435   .     S
C1928  C2186   1.374   .     A
C1928  C2170   1.374   .     A
H1929  C1930   0.940   .     S
C1931  C1932   1.481   .     S
C1932  C1933   1.181   .     T
C1933  C1934   1.361   .     S
C1934  C1935   1.190   .     T
C1935  C1936   1.435   .     S
C1936  C2188   1.374   .     A
C1936  C2172   1.374   .     A
H1937  C1938   0.940   .     S
C1939  C1940   1.481   .     S
C1940  C1941   1.181   .     T
C1941  C1942   1.361   .     S
C1942  C1943   1.190   .     T
C1943  C1944   1.435   .     S
C1944  C2190   1.374   .     A
C1944  C2174   1.374   .     A
H1945  C1946   0.940   .     S
C1947  C1948   1.481   .     S
C1948  C1949   1.181   .     T
C1949  C1950   1.361   .     S
C1950  C1951   1.190   .     T
C1951  C1952   1.435   .     S
C1952  C2192   1.374   .     A
C1952  C2176   1.374   .     A
H1953  C1954   0.940   .     S
C1955  C1956   1.481   .     S
C1956  C1957   1.181   .     T
C1957  C1958   1.361   .     S
C1958  C1959   1.190   .     T
C1959  C1960   1.435   .     S
C1960  C2194   1.374   .     A
C1960  C2154   1.374   .     A
H1961  C1962   0.940   .     S
C1963  C1964   1.481   .     S
C1964  C1965   1.181   .     T
C1965  C1966   1.361   .     S
C1966  C1967   1.190   .     T
C1967  C1968   1.435   .     S
C1968  C2196   1.374   .     A
C1968  C2156   1.374   .     A
H1969  C1970   0.940   .     S
C1971  C1972   1.481   .     S
C1972  C1973   1.181   .     T
C1973  C1974   1.361   .     S
C1974  C1975   1.190   .     T
C1975  C1976   1.435   .     S
C1976  C2198   1.374   .     A
C1976  C2158   1.374   .     A
H1977  C1978   0.940   .     S
C1979  C1980   1.481   .     S
C1980  C1981   1.181   .     T
C1981  C1982   1.361   .     S
C1982  C1983   1.190   .     T
C1983  C1984   1.435   .     S
C1984  C2200   1.374   .     A
C1984  C2160   1.374   .     A
H1985  C1986   0.940   .     S
C1987  C1988   1.481   .     S
C1988  C1989   1.181   .     T
C1989  C1990   1.361   .     S
C1990  C1991   1.190   .     T
C1991  C1992   1.435   .     S
C1992  C2202   1.374   .     A
C1992  C2162   1.374   .     A
H1993  C1994   0.940   .     S
C1995  C1996   1.481   .     S
C1996  C1997   1.181   .     T
C1997  C1998   1.361   .     S
C1998  C1999   1.190   .     T
C1999  C2000   1.435   .     S
C2000  C2204   1.374   .     A
C2000  C2164   1.374   .     A
H2001  C2002   0.940   .     S
C2003  C2004   1.481   .     S
C2004  C2005   1.181   .     T
C2005  C2006   1.361   .     S
C2006  C2007   1.190   .     T
C2007  C2008   1.435   .     S
C2008  C2206   1.374   .     A
C2008  C2166   1.374   .     A
H2009  C2010   0.940   .     S
C2011  C2012   1.481   .     S
C2012  C2013   1.181   .     T
C2013  C2014   1.361   .     S
C2014  C2015   1.190   .     T
C2015  C2016   1.435   .     S
C2016  C2208   1.374   .     A
C2016  C2168   1.374   .     A
H2017  C2018   0.941   .     S
H2019  C2020   0.941   .     S
H2021  C2022   0.941   .     S
H2023  C2024   0.941   .     S
H2025  C2026   0.941   .     S
H2027  C2028   0.941   .     S
H2029  C2030   0.941   .     S
H2031  C2032   0.941   .     S
H2033  C2034   0.941   .     S
H2035  C2036   0.941   .     S
H2037  C2038   0.941   .     S
H2039  C2040   0.941   .     S
H2041  C2042   0.941   .     S
H2043  C2044   0.941   .     S
H2045  C2046   0.941   .     S
H2047  C2048   0.941   .     S
H2049  C2050   0.941   .     S
H2051  C2052   0.941   .     S
H2053  C2054   0.941   .     S
H2055  C2056   0.941   .     S
H2057  C2058   0.941   .     S
H2059  C2060   0.941   .     S
H2061  C2062   0.941   .     S
H2063  C2064   0.941   .     S
H2065  C2066   0.941   .     S
H2067  C2068   0.941   .     S
H2069  C2070   0.941   .     S
H2071  C2072   0.941   .     S
H2073  C2074   0.941   .     S
H2075  C2076   0.941   .     S
H2077  C2078   0.941   .     S
H2079  C2080   0.941   .     S
H2081  C2082   0.941   .     S
H2083  C2084   0.941   .     S
H2085  C2086   0.941   .     S
H2087  C2088   0.941   .     S
H2089  C2090   0.941   .     S
H2091  C2092   0.941   .     S
H2093  C2094   0.941   .     S
H2095  C2096   0.941   .     S
H2097  C2098   0.941   .     S
H2099  C2100   0.941   .     S
H2101  C2102   0.941   .     S
H2103  C2104   0.941   .     S
H2105  C2106   0.941   .     S
H2107  C2108   0.941   .     S
H2109  C2110   0.941   .     S
H2111  C2112   0.941   .     S
H2113  C2114   0.941   .     S
H2115  C2116   0.941   .     S
H2117  C2118   0.941   .     S
H2119  C2120   0.941   .     S
H2121  C2122   0.941   .     S
H2123  C2124   0.941   .     S
H2125  C2126   0.941   .     S
H2127  C2128   0.941   .     S
H2129  C2130   0.941   .     S
H2131  C2132   0.941   .     S
H2133  C2134   0.941   .     S
H2135  C2136   0.941   .     S
H2137  C2138   0.941   .     S
H2139  C2140   0.941   .     S
H2141  C2142   0.941   .     S
H2143  C2144   0.941   .     S
H2145  C2146   0.941   .     S
H2147  C2148   0.941   .     S
H2149  C2150   0.941   .     S
H2151  C2152   0.941   .     S
H2153  C2154   0.941   .     S
H2155  C2156   0.941   .     S
H2157  C2158   0.941   .     S
H2159  C2160   0.941   .     S
H2161  C2162   0.941   .     S
H2163  C2164   0.941   .     S
H2165  C2166   0.941   .     S
H2167  C2168   0.941   .     S
H2169  C2170   0.941   .     S
H2171  C2172   0.941   .     S
H2173  C2174   0.941   .     S
H2175  C2176   0.941   .     S
H2177  C2178   0.941   .     S
H2179  C2180   0.941   .     S
H2181  C2182   0.941   .     S
H2183  C2184   0.941   .     S
H2185  C2186   0.941   .     S
H2187  C2188   0.941   .     S
H2189  C2190   0.941   .     S
H2191  C2192   0.941   .     S
H2193  C2194   0.941   .     S
H2195  C2196   0.941   .     S
H2197  C2198   0.941   .     S
H2199  C2200   0.941   .     S
H2201  C2202   0.941   .     S
H2203  C2204   0.941   .     S
H2205  C2206   0.941   .     S
H2207  C2208   0.941   .     S
