data_MIBQAR_clean\(2)
_audit_creation_date              2015-01-20
_audit_creation_method            'Materials Studio'
_symmetry_space_group_name_H-M    'P1'
_symmetry_Int_Tables_number       1
_symmetry_cell_setting            triclinic
loop_
_symmetry_equiv_pos_as_xyz
  x,y,z
_cell_length_a                    25.8918
_cell_length_b                    25.8918
_cell_length_c                    25.8918
_cell_angle_alpha                 90.0000
_cell_angle_beta                  90.0000
_cell_angle_gamma                 90.0000
loop_
_atom_site_label
_atom_site_type_symbol
_atom_site_fract_x
_atom_site_fract_y
_atom_site_fract_z
_atom_site_U_iso_or_equiv
_atom_site_adp_type
_atom_site_occupancy
Zn1    Zn    0.20659   0.70659   0.20659   0.01267  Uiso   1.00
Zn2    Zn    0.79341   0.29341   0.20659   0.01267  Uiso   1.00
Zn3    Zn    0.29341   0.29341   0.70659   0.01267  Uiso   1.00
Zn4    Zn    0.79341   0.70659   0.79341   0.01267  Uiso   1.00
Zn5    Zn    0.79341   0.20659   0.29341   0.01267  Uiso   1.00
Zn6    Zn    0.29341   0.20659   0.79341   0.01267  Uiso   1.00
Zn7    Zn    0.20659   0.29341   0.79341   0.01267  Uiso   1.00
Zn8    Zn    0.20659   0.20659   0.70659   0.01267  Uiso   1.00
Zn9    Zn    0.20659   0.79341   0.29341   0.01267  Uiso   1.00
Zn10   Zn    0.79341   0.79341   0.70659   0.01267  Uiso   1.00
Zn11   Zn    0.29341   0.79341   0.20659   0.01267  Uiso   1.00
Zn12   Zn    0.29341   0.70659   0.29341   0.01267  Uiso   1.00
Zn13   Zn    0.70659   0.20659   0.20659   0.01267  Uiso   1.00
Zn14   Zn    0.70659   0.70659   0.70659   0.01267  Uiso   1.00
Zn15   Zn    0.70659   0.79341   0.79341   0.01267  Uiso   1.00
Zn16   Zn    0.70659   0.29341   0.29341   0.01267  Uiso   1.00
Zn17   Zn    0.70659   0.20659   0.79341   0.01267  Uiso   1.00
Zn18   Zn    0.70659   0.70659   0.29341   0.01267  Uiso   1.00
Zn19   Zn    0.20659   0.20659   0.29341   0.01267  Uiso   1.00
Zn20   Zn    0.29341   0.79341   0.79341   0.01267  Uiso   1.00
Zn21   Zn    0.29341   0.29341   0.29341   0.01267  Uiso   1.00
Zn22   Zn    0.70659   0.79341   0.20659   0.01267  Uiso   1.00
Zn23   Zn    0.70659   0.29341   0.70659   0.01267  Uiso   1.00
Zn24   Zn    0.20659   0.29341   0.20659   0.01267  Uiso   1.00
Zn25   Zn    0.29341   0.20659   0.20659   0.01267  Uiso   1.00
Zn26   Zn    0.29341   0.70659   0.70659   0.01267  Uiso   1.00
Zn27   Zn    0.79341   0.20659   0.70659   0.01267  Uiso   1.00
Zn28   Zn    0.79341   0.79341   0.29341   0.01267  Uiso   1.00
Zn29   Zn    0.20659   0.79341   0.70659   0.01267  Uiso   1.00
Zn30   Zn    0.20659   0.70659   0.79341   0.01267  Uiso   1.00
Zn31   Zn    0.79341   0.70659   0.20659   0.01267  Uiso   1.00
Zn32   Zn    0.79341   0.29341   0.79341   0.01267  Uiso   1.00
H33    H     0.69480   0.54520   0.69480   0.01267  Uiso   1.00
C34    C     0.71724   0.52683   0.71724   0.01267  Uiso   1.00
O35    O     0.21933   0.63371   0.21933   0.01267  Uiso   1.00
H36    H     0.69480   0.04520   0.19480   0.01267  Uiso   1.00
C37    C     0.71724   0.02683   0.21724   0.01267  Uiso   1.00
O38    O     0.21933   0.13371   0.71933   0.01267  Uiso   1.00
H39    H     0.19480   0.54520   0.19480   0.01267  Uiso   1.00
C40    C     0.21724   0.52683   0.21724   0.01267  Uiso   1.00
O41    O     0.71933   0.63371   0.71933   0.01267  Uiso   1.00
H42    H     0.19480   0.04520   0.69480   0.01267  Uiso   1.00
C43    C     0.21724   0.02683   0.71724   0.01267  Uiso   1.00
O44    O     0.71933   0.13371   0.21933   0.01267  Uiso   1.00
H45    H     0.30520   0.45480   0.69480   0.01267  Uiso   1.00
C46    C     0.28276   0.47317   0.71724   0.01267  Uiso   1.00
O47    O     0.78067   0.36629   0.21933   0.01267  Uiso   1.00
H48    H     0.30520   0.95480   0.19480   0.01267  Uiso   1.00
C49    C     0.28276   0.97317   0.21724   0.01267  Uiso   1.00
O50    O     0.78067   0.86629   0.71933   0.01267  Uiso   1.00
H51    H     0.80520   0.45480   0.19480   0.01267  Uiso   1.00
C52    C     0.78276   0.47317   0.21724   0.01267  Uiso   1.00
O53    O     0.28067   0.36629   0.71933   0.01267  Uiso   1.00
H54    H     0.80520   0.95480   0.69480   0.01267  Uiso   1.00
C55    C     0.78276   0.97317   0.71724   0.01267  Uiso   1.00
O56    O     0.28067   0.86629   0.21933   0.01267  Uiso   1.00
H57    H     0.30520   0.54520   0.30520   0.01267  Uiso   1.00
C58    C     0.28276   0.52683   0.28276   0.01267  Uiso   1.00
O59    O     0.78067   0.63371   0.78067   0.01267  Uiso   1.00
H60    H     0.30520   0.04520   0.80520   0.01267  Uiso   1.00
C61    C     0.28276   0.02683   0.78276   0.01267  Uiso   1.00
O62    O     0.78067   0.13371   0.28067   0.01267  Uiso   1.00
H63    H     0.80520   0.54520   0.80520   0.01267  Uiso   1.00
C64    C     0.78276   0.52683   0.78276   0.01267  Uiso   1.00
O65    O     0.28067   0.63371   0.28067   0.01267  Uiso   1.00
H66    H     0.80520   0.04520   0.30520   0.01267  Uiso   1.00
C67    C     0.78276   0.02683   0.28276   0.01267  Uiso   1.00
O68    O     0.28067   0.13371   0.78067   0.01267  Uiso   1.00
H69    H     0.69480   0.45480   0.30520   0.01267  Uiso   1.00
C70    C     0.71724   0.47317   0.28276   0.01267  Uiso   1.00
O71    O     0.21933   0.36629   0.78067   0.01267  Uiso   1.00
H72    H     0.69480   0.95480   0.80520   0.01267  Uiso   1.00
C73    C     0.71724   0.97317   0.78276   0.01267  Uiso   1.00
O74    O     0.21933   0.86629   0.28067   0.01267  Uiso   1.00
H75    H     0.19480   0.45480   0.80520   0.01267  Uiso   1.00
C76    C     0.21724   0.47317   0.78276   0.01267  Uiso   1.00
O77    O     0.71933   0.36629   0.28067   0.01267  Uiso   1.00
H78    H     0.19480   0.95480   0.30520   0.01267  Uiso   1.00
C79    C     0.21724   0.97317   0.28276   0.01267  Uiso   1.00
O80    O     0.71933   0.86629   0.78067   0.01267  Uiso   1.00
H81    H     0.69480   0.69480   0.54520   0.01267  Uiso   1.00
C82    C     0.71724   0.71724   0.52683   0.01267  Uiso   1.00
O83    O     0.21933   0.21933   0.63371   0.01267  Uiso   1.00
H84    H     0.69480   0.19480   0.04520   0.01267  Uiso   1.00
C85    C     0.71724   0.21724   0.02683   0.01267  Uiso   1.00
O86    O     0.21933   0.71933   0.13371   0.01267  Uiso   1.00
H87    H     0.19480   0.69480   0.04520   0.01267  Uiso   1.00
C88    C     0.21724   0.71724   0.02683   0.01267  Uiso   1.00
O89    O     0.71933   0.21933   0.13371   0.01267  Uiso   1.00
H90    H     0.19480   0.19480   0.54520   0.01267  Uiso   1.00
C91    C     0.21724   0.21724   0.52683   0.01267  Uiso   1.00
O92    O     0.71933   0.71933   0.63371   0.01267  Uiso   1.00
H93    H     0.69480   0.30520   0.45480   0.01267  Uiso   1.00
C94    C     0.71724   0.28276   0.47317   0.01267  Uiso   1.00
O95    O     0.21933   0.78067   0.36629   0.01267  Uiso   1.00
H96    H     0.69480   0.80520   0.95480   0.01267  Uiso   1.00
C97    C     0.71724   0.78276   0.97317   0.01267  Uiso   1.00
O98    O     0.21933   0.28067   0.86629   0.01267  Uiso   1.00
H99    H     0.19480   0.30520   0.95480   0.01267  Uiso   1.00
C100   C     0.21724   0.28276   0.97317   0.01267  Uiso   1.00
O101   O     0.71933   0.78067   0.86629   0.01267  Uiso   1.00
H102   H     0.19480   0.80520   0.45480   0.01267  Uiso   1.00
C103   C     0.21724   0.78276   0.47317   0.01267  Uiso   1.00
O104   O     0.71933   0.28067   0.36629   0.01267  Uiso   1.00
H105   H     0.30520   0.30520   0.54520   0.01267  Uiso   1.00
C106   C     0.28276   0.28276   0.52683   0.01267  Uiso   1.00
O107   O     0.78067   0.78067   0.63371   0.01267  Uiso   1.00
H108   H     0.30520   0.80520   0.04520   0.01267  Uiso   1.00
C109   C     0.28276   0.78276   0.02683   0.01267  Uiso   1.00
O110   O     0.78067   0.28067   0.13371   0.01267  Uiso   1.00
H111   H     0.80520   0.30520   0.04520   0.01267  Uiso   1.00
C112   C     0.78276   0.28276   0.02683   0.01267  Uiso   1.00
O113   O     0.28067   0.78067   0.13371   0.01267  Uiso   1.00
H114   H     0.80520   0.80520   0.54520   0.01267  Uiso   1.00
C115   C     0.78276   0.78276   0.52683   0.01267  Uiso   1.00
O116   O     0.28067   0.28067   0.63371   0.01267  Uiso   1.00
H117   H     0.30520   0.69480   0.45480   0.01267  Uiso   1.00
C118   C     0.28276   0.71724   0.47317   0.01267  Uiso   1.00
O119   O     0.78067   0.21933   0.36629   0.01267  Uiso   1.00
H120   H     0.30520   0.19480   0.95480   0.01267  Uiso   1.00
C121   C     0.28276   0.21724   0.97317   0.01267  Uiso   1.00
O122   O     0.78067   0.71933   0.86629   0.01267  Uiso   1.00
H123   H     0.80520   0.69480   0.95480   0.01267  Uiso   1.00
C124   C     0.78276   0.71724   0.97317   0.01267  Uiso   1.00
O125   O     0.28067   0.21933   0.86629   0.01267  Uiso   1.00
H126   H     0.80520   0.19480   0.45480   0.01267  Uiso   1.00
C127   C     0.78276   0.21724   0.47317   0.01267  Uiso   1.00
O128   O     0.28067   0.71933   0.36629   0.01267  Uiso   1.00
H129   H     0.54520   0.69480   0.69480   0.01267  Uiso   1.00
C130   C     0.52683   0.71724   0.71724   0.01267  Uiso   1.00
O131   O     0.63371   0.21933   0.21933   0.01267  Uiso   1.00
H132   H     0.54520   0.19480   0.19480   0.01267  Uiso   1.00
C133   C     0.52683   0.21724   0.21724   0.01267  Uiso   1.00
O134   O     0.63371   0.71933   0.71933   0.01267  Uiso   1.00
H135   H     0.04520   0.69480   0.19480   0.01267  Uiso   1.00
C136   C     0.02683   0.71724   0.21724   0.01267  Uiso   1.00
O137   O     0.13371   0.21933   0.71933   0.01267  Uiso   1.00
H138   H     0.04520   0.19480   0.69480   0.01267  Uiso   1.00
C139   C     0.02683   0.21724   0.71724   0.01267  Uiso   1.00
O140   O     0.13371   0.71933   0.21933   0.01267  Uiso   1.00
H141   H     0.45480   0.69480   0.30520   0.01267  Uiso   1.00
C142   C     0.47317   0.71724   0.28276   0.01267  Uiso   1.00
O143   O     0.36629   0.21933   0.78067   0.01267  Uiso   1.00
H144   H     0.45480   0.19480   0.80520   0.01267  Uiso   1.00
C145   C     0.47317   0.21724   0.78276   0.01267  Uiso   1.00
O146   O     0.36629   0.71933   0.28067   0.01267  Uiso   1.00
H147   H     0.95480   0.69480   0.80520   0.01267  Uiso   1.00
C148   C     0.97317   0.71724   0.78276   0.01267  Uiso   1.00
O149   O     0.86629   0.21933   0.28067   0.01267  Uiso   1.00
H150   H     0.95480   0.19480   0.30520   0.01267  Uiso   1.00
C151   C     0.97317   0.21724   0.28276   0.01267  Uiso   1.00
O152   O     0.86629   0.71933   0.78067   0.01267  Uiso   1.00
H153   H     0.54520   0.30520   0.30520   0.01267  Uiso   1.00
C154   C     0.52683   0.28276   0.28276   0.01267  Uiso   1.00
O155   O     0.63371   0.78067   0.78067   0.01267  Uiso   1.00
H156   H     0.54520   0.80520   0.80520   0.01267  Uiso   1.00
C157   C     0.52683   0.78276   0.78276   0.01267  Uiso   1.00
O158   O     0.63371   0.28067   0.28067   0.01267  Uiso   1.00
H159   H     0.04520   0.30520   0.80520   0.01267  Uiso   1.00
C160   C     0.02683   0.28276   0.78276   0.01267  Uiso   1.00
O161   O     0.13371   0.78067   0.28067   0.01267  Uiso   1.00
H162   H     0.04520   0.80520   0.30520   0.01267  Uiso   1.00
C163   C     0.02683   0.78276   0.28276   0.01267  Uiso   1.00
O164   O     0.13371   0.28067   0.78067   0.01267  Uiso   1.00
H165   H     0.45480   0.30520   0.69480   0.01267  Uiso   1.00
C166   C     0.47317   0.28276   0.71724   0.01267  Uiso   1.00
O167   O     0.36629   0.78067   0.21933   0.01267  Uiso   1.00
H168   H     0.45480   0.80520   0.19480   0.01267  Uiso   1.00
C169   C     0.47317   0.78276   0.21724   0.01267  Uiso   1.00
O170   O     0.36629   0.28067   0.71933   0.01267  Uiso   1.00
H171   H     0.95480   0.30520   0.19480   0.01267  Uiso   1.00
C172   C     0.97317   0.28276   0.21724   0.01267  Uiso   1.00
O173   O     0.86629   0.78067   0.71933   0.01267  Uiso   1.00
H174   H     0.95480   0.80520   0.69480   0.01267  Uiso   1.00
C175   C     0.97317   0.78276   0.71724   0.01267  Uiso   1.00
O176   O     0.86629   0.28067   0.21933   0.01267  Uiso   1.00
H177   H     0.54520   0.69480   0.30520   0.01267  Uiso   1.00
C178   C     0.52683   0.71724   0.28276   0.01267  Uiso   1.00
O179   O     0.63371   0.21933   0.78067   0.01267  Uiso   1.00
H180   H     0.54520   0.19480   0.80520   0.01267  Uiso   1.00
C181   C     0.52683   0.21724   0.78276   0.01267  Uiso   1.00
O182   O     0.63371   0.71933   0.28067   0.01267  Uiso   1.00
H183   H     0.04520   0.69480   0.80520   0.01267  Uiso   1.00
C184   C     0.02683   0.71724   0.78276   0.01267  Uiso   1.00
O185   O     0.13371   0.21933   0.28067   0.01267  Uiso   1.00
H186   H     0.04520   0.19480   0.30520   0.01267  Uiso   1.00
C187   C     0.02683   0.21724   0.28276   0.01267  Uiso   1.00
O188   O     0.13371   0.71933   0.78067   0.01267  Uiso   1.00
H189   H     0.45480   0.30520   0.30520   0.01267  Uiso   1.00
C190   C     0.47317   0.28276   0.28276   0.01267  Uiso   1.00
O191   O     0.36629   0.78067   0.78067   0.01267  Uiso   1.00
H192   H     0.45480   0.80520   0.80520   0.01267  Uiso   1.00
C193   C     0.47317   0.78276   0.78276   0.01267  Uiso   1.00
O194   O     0.36629   0.28067   0.28067   0.01267  Uiso   1.00
H195   H     0.95480   0.30520   0.80520   0.01267  Uiso   1.00
C196   C     0.97317   0.28276   0.78276   0.01267  Uiso   1.00
O197   O     0.86629   0.78067   0.28067   0.01267  Uiso   1.00
H198   H     0.95480   0.80520   0.30520   0.01267  Uiso   1.00
C199   C     0.97317   0.78276   0.28276   0.01267  Uiso   1.00
O200   O     0.86629   0.28067   0.78067   0.01267  Uiso   1.00
H201   H     0.54520   0.30520   0.69480   0.01267  Uiso   1.00
C202   C     0.52683   0.28276   0.71724   0.01267  Uiso   1.00
O203   O     0.63371   0.78067   0.21933   0.01267  Uiso   1.00
H204   H     0.54520   0.80520   0.19480   0.01267  Uiso   1.00
C205   C     0.52683   0.78276   0.21724   0.01267  Uiso   1.00
O206   O     0.63371   0.28067   0.71933   0.01267  Uiso   1.00
H207   H     0.04520   0.30520   0.19480   0.01267  Uiso   1.00
C208   C     0.02683   0.28276   0.21724   0.01267  Uiso   1.00
O209   O     0.13371   0.78067   0.71933   0.01267  Uiso   1.00
H210   H     0.04520   0.80520   0.69480   0.01267  Uiso   1.00
C211   C     0.02683   0.78276   0.71724   0.01267  Uiso   1.00
O212   O     0.13371   0.28067   0.21933   0.01267  Uiso   1.00
H213   H     0.45480   0.69480   0.69480   0.01267  Uiso   1.00
C214   C     0.47317   0.71724   0.71724   0.01267  Uiso   1.00
O215   O     0.36629   0.21933   0.21933   0.01267  Uiso   1.00
H216   H     0.45480   0.19480   0.19480   0.01267  Uiso   1.00
C217   C     0.47317   0.21724   0.21724   0.01267  Uiso   1.00
O218   O     0.36629   0.71933   0.71933   0.01267  Uiso   1.00
H219   H     0.95480   0.69480   0.19480   0.01267  Uiso   1.00
C220   C     0.97317   0.71724   0.21724   0.01267  Uiso   1.00
O221   O     0.86629   0.21933   0.71933   0.01267  Uiso   1.00
H222   H     0.95480   0.19480   0.69480   0.01267  Uiso   1.00
C223   C     0.97317   0.21724   0.71724   0.01267  Uiso   1.00
O224   O     0.86629   0.71933   0.21933   0.01267  Uiso   1.00
H225   H     0.69480   0.69480   0.45480   0.01267  Uiso   1.00
C226   C     0.71724   0.71724   0.47317   0.01267  Uiso   1.00
O227   O     0.21933   0.21933   0.36629   0.01267  Uiso   1.00
H228   H     0.69480   0.19480   0.95480   0.01267  Uiso   1.00
C229   C     0.71724   0.21724   0.97317   0.01267  Uiso   1.00
O230   O     0.21933   0.71933   0.86629   0.01267  Uiso   1.00
H231   H     0.19480   0.69480   0.95480   0.01267  Uiso   1.00
C232   C     0.21724   0.71724   0.97317   0.01267  Uiso   1.00
O233   O     0.71933   0.21933   0.86629   0.01267  Uiso   1.00
H234   H     0.19480   0.19480   0.45480   0.01267  Uiso   1.00
C235   C     0.21724   0.21724   0.47317   0.01267  Uiso   1.00
O236   O     0.71933   0.71933   0.36629   0.01267  Uiso   1.00
H237   H     0.30520   0.69480   0.54520   0.01267  Uiso   1.00
C238   C     0.28276   0.71724   0.52683   0.01267  Uiso   1.00
O239   O     0.78067   0.21933   0.63371   0.01267  Uiso   1.00
H240   H     0.30520   0.19480   0.04520   0.01267  Uiso   1.00
C241   C     0.28276   0.21724   0.02683   0.01267  Uiso   1.00
O242   O     0.78067   0.71933   0.13371   0.01267  Uiso   1.00
H243   H     0.80520   0.69480   0.04520   0.01267  Uiso   1.00
C244   C     0.78276   0.71724   0.02683   0.01267  Uiso   1.00
O245   O     0.28067   0.21933   0.13371   0.01267  Uiso   1.00
H246   H     0.80520   0.19480   0.54520   0.01267  Uiso   1.00
C247   C     0.78276   0.21724   0.52683   0.01267  Uiso   1.00
O248   O     0.28067   0.71933   0.63371   0.01267  Uiso   1.00
H249   H     0.30520   0.30520   0.45480   0.01267  Uiso   1.00
C250   C     0.28276   0.28276   0.47317   0.01267  Uiso   1.00
O251   O     0.78067   0.78067   0.36629   0.01267  Uiso   1.00
H252   H     0.30520   0.80520   0.95480   0.01267  Uiso   1.00
C253   C     0.28276   0.78276   0.97317   0.01267  Uiso   1.00
O254   O     0.78067   0.28067   0.86629   0.01267  Uiso   1.00
H255   H     0.80520   0.30520   0.95480   0.01267  Uiso   1.00
C256   C     0.78276   0.28276   0.97317   0.01267  Uiso   1.00
O257   O     0.28067   0.78067   0.86629   0.01267  Uiso   1.00
H258   H     0.80520   0.80520   0.45480   0.01267  Uiso   1.00
C259   C     0.78276   0.78276   0.47317   0.01267  Uiso   1.00
O260   O     0.28067   0.28067   0.36629   0.01267  Uiso   1.00
H261   H     0.69480   0.30520   0.54520   0.01267  Uiso   1.00
C262   C     0.71724   0.28276   0.52683   0.01267  Uiso   1.00
O263   O     0.21933   0.78067   0.63371   0.01267  Uiso   1.00
H264   H     0.69480   0.80520   0.04520   0.01267  Uiso   1.00
C265   C     0.71724   0.78276   0.02683   0.01267  Uiso   1.00
O266   O     0.21933   0.28067   0.13371   0.01267  Uiso   1.00
H267   H     0.19480   0.30520   0.04520   0.01267  Uiso   1.00
C268   C     0.21724   0.28276   0.02683   0.01267  Uiso   1.00
O269   O     0.71933   0.78067   0.13371   0.01267  Uiso   1.00
H270   H     0.19480   0.80520   0.54520   0.01267  Uiso   1.00
C271   C     0.21724   0.78276   0.52683   0.01267  Uiso   1.00
O272   O     0.71933   0.28067   0.63371   0.01267  Uiso   1.00
H273   H     0.69480   0.54520   0.30520   0.01267  Uiso   1.00
C274   C     0.71724   0.52683   0.28276   0.01267  Uiso   1.00
O275   O     0.21933   0.63371   0.78067   0.01267  Uiso   1.00
H276   H     0.69480   0.04520   0.80520   0.01267  Uiso   1.00
C277   C     0.71724   0.02683   0.78276   0.01267  Uiso   1.00
O278   O     0.21933   0.13371   0.28067   0.01267  Uiso   1.00
H279   H     0.19480   0.54520   0.80520   0.01267  Uiso   1.00
C280   C     0.21724   0.52683   0.78276   0.01267  Uiso   1.00
O281   O     0.71933   0.63371   0.28067   0.01267  Uiso   1.00
H282   H     0.19480   0.04520   0.30520   0.01267  Uiso   1.00
C283   C     0.21724   0.02683   0.28276   0.01267  Uiso   1.00
O284   O     0.71933   0.13371   0.78067   0.01267  Uiso   1.00
H285   H     0.69480   0.45480   0.69480   0.01267  Uiso   1.00
C286   C     0.71724   0.47317   0.71724   0.01267  Uiso   1.00
O287   O     0.21933   0.36629   0.21933   0.01267  Uiso   1.00
H288   H     0.69480   0.95480   0.19480   0.01267  Uiso   1.00
C289   C     0.71724   0.97317   0.21724   0.01267  Uiso   1.00
O290   O     0.21933   0.86629   0.71933   0.01267  Uiso   1.00
H291   H     0.19480   0.45480   0.19480   0.01267  Uiso   1.00
C292   C     0.21724   0.47317   0.21724   0.01267  Uiso   1.00
O293   O     0.71933   0.36629   0.71933   0.01267  Uiso   1.00
H294   H     0.19480   0.95480   0.69480   0.01267  Uiso   1.00
C295   C     0.21724   0.97317   0.71724   0.01267  Uiso   1.00
O296   O     0.71933   0.86629   0.21933   0.01267  Uiso   1.00
H297   H     0.30520   0.54520   0.69480   0.01267  Uiso   1.00
C298   C     0.28276   0.52683   0.71724   0.01267  Uiso   1.00
O299   O     0.78067   0.63371   0.21933   0.01267  Uiso   1.00
H300   H     0.30520   0.04520   0.19480   0.01267  Uiso   1.00
C301   C     0.28276   0.02683   0.21724   0.01267  Uiso   1.00
O302   O     0.78067   0.13371   0.71933   0.01267  Uiso   1.00
H303   H     0.80520   0.54520   0.19480   0.01267  Uiso   1.00
C304   C     0.78276   0.52683   0.21724   0.01267  Uiso   1.00
O305   O     0.28067   0.63371   0.71933   0.01267  Uiso   1.00
H306   H     0.80520   0.04520   0.69480   0.01267  Uiso   1.00
C307   C     0.78276   0.02683   0.71724   0.01267  Uiso   1.00
O308   O     0.28067   0.13371   0.21933   0.01267  Uiso   1.00
H309   H     0.30520   0.45480   0.30520   0.01267  Uiso   1.00
C310   C     0.28276   0.47317   0.28276   0.01267  Uiso   1.00
O311   O     0.78067   0.36629   0.78067   0.01267  Uiso   1.00
H312   H     0.30520   0.95480   0.80520   0.01267  Uiso   1.00
C313   C     0.28276   0.97317   0.78276   0.01267  Uiso   1.00
O314   O     0.78067   0.86629   0.28067   0.01267  Uiso   1.00
H315   H     0.80520   0.45480   0.80520   0.01267  Uiso   1.00
C316   C     0.78276   0.47317   0.78276   0.01267  Uiso   1.00
O317   O     0.28067   0.36629   0.28067   0.01267  Uiso   1.00
H318   H     0.80520   0.95480   0.30520   0.01267  Uiso   1.00
C319   C     0.78276   0.97317   0.28276   0.01267  Uiso   1.00
O320   O     0.28067   0.86629   0.78067   0.01267  Uiso   1.00
C321   C     0.25000   0.61157   0.25000   0.01267  Uiso   1.00
C322   C     0.25000   0.55359   0.25000   0.01267  Uiso   1.00
C323   C     0.25000   0.11157   0.75000   0.01267  Uiso   1.00
C324   C     0.25000   0.05359   0.75000   0.01267  Uiso   1.00
C325   C     0.75000   0.38843   0.25000   0.01267  Uiso   1.00
C326   C     0.75000   0.44641   0.25000   0.01267  Uiso   1.00
C327   C     0.75000   0.88843   0.75000   0.01267  Uiso   1.00
C328   C     0.75000   0.94641   0.75000   0.01267  Uiso   1.00
C329   C     0.25000   0.88843   0.25000   0.01267  Uiso   1.00
C330   C     0.25000   0.94641   0.25000   0.01267  Uiso   1.00
C331   C     0.75000   0.61157   0.75000   0.01267  Uiso   1.00
C332   C     0.75000   0.55359   0.75000   0.01267  Uiso   1.00
C333   C     0.75000   0.11157   0.25000   0.01267  Uiso   1.00
C334   C     0.75000   0.05359   0.25000   0.01267  Uiso   1.00
C335   C     0.25000   0.38843   0.75000   0.01267  Uiso   1.00
C336   C     0.25000   0.44641   0.75000   0.01267  Uiso   1.00
C337   C     0.25000   0.25000   0.61157   0.01267  Uiso   1.00
C338   C     0.25000   0.25000   0.55359   0.01267  Uiso   1.00
C339   C     0.25000   0.75000   0.11157   0.01267  Uiso   1.00
C340   C     0.25000   0.75000   0.05359   0.01267  Uiso   1.00
C341   C     0.25000   0.75000   0.38843   0.01267  Uiso   1.00
C342   C     0.25000   0.75000   0.44641   0.01267  Uiso   1.00
C343   C     0.25000   0.25000   0.88843   0.01267  Uiso   1.00
C344   C     0.25000   0.25000   0.94641   0.01267  Uiso   1.00
C345   C     0.75000   0.75000   0.61157   0.01267  Uiso   1.00
C346   C     0.75000   0.75000   0.55359   0.01267  Uiso   1.00
C347   C     0.75000   0.25000   0.11157   0.01267  Uiso   1.00
C348   C     0.75000   0.25000   0.05359   0.01267  Uiso   1.00
C349   C     0.75000   0.25000   0.38843   0.01267  Uiso   1.00
C350   C     0.75000   0.25000   0.44641   0.01267  Uiso   1.00
C351   C     0.75000   0.75000   0.88843   0.01267  Uiso   1.00
C352   C     0.75000   0.75000   0.94641   0.01267  Uiso   1.00
C353   C     0.61157   0.25000   0.25000   0.01267  Uiso   1.00
C354   C     0.55359   0.25000   0.25000   0.01267  Uiso   1.00
C355   C     0.11157   0.25000   0.75000   0.01267  Uiso   1.00
C356   C     0.05359   0.25000   0.75000   0.01267  Uiso   1.00
C357   C     0.38843   0.25000   0.75000   0.01267  Uiso   1.00
C358   C     0.44641   0.25000   0.75000   0.01267  Uiso   1.00
C359   C     0.88843   0.25000   0.25000   0.01267  Uiso   1.00
C360   C     0.94641   0.25000   0.25000   0.01267  Uiso   1.00
C361   C     0.61157   0.75000   0.75000   0.01267  Uiso   1.00
C362   C     0.55359   0.75000   0.75000   0.01267  Uiso   1.00
C363   C     0.11157   0.75000   0.25000   0.01267  Uiso   1.00
C364   C     0.05359   0.75000   0.25000   0.01267  Uiso   1.00
C365   C     0.38843   0.75000   0.25000   0.01267  Uiso   1.00
C366   C     0.44641   0.75000   0.25000   0.01267  Uiso   1.00
C367   C     0.88843   0.75000   0.75000   0.01267  Uiso   1.00
C368   C     0.94641   0.75000   0.75000   0.01267  Uiso   1.00
C369   C     0.61157   0.25000   0.75000   0.01267  Uiso   1.00
C370   C     0.55359   0.25000   0.75000   0.01267  Uiso   1.00
C371   C     0.11157   0.25000   0.25000   0.01267  Uiso   1.00
C372   C     0.05359   0.25000   0.25000   0.01267  Uiso   1.00
C373   C     0.38843   0.75000   0.75000   0.01267  Uiso   1.00
C374   C     0.44641   0.75000   0.75000   0.01267  Uiso   1.00
C375   C     0.38843   0.25000   0.25000   0.01267  Uiso   1.00
C376   C     0.44641   0.25000   0.25000   0.01267  Uiso   1.00
C377   C     0.88843   0.75000   0.25000   0.01267  Uiso   1.00
C378   C     0.94641   0.75000   0.25000   0.01267  Uiso   1.00
C379   C     0.61157   0.75000   0.25000   0.01267  Uiso   1.00
C380   C     0.55359   0.75000   0.25000   0.01267  Uiso   1.00
C381   C     0.11157   0.75000   0.75000   0.01267  Uiso   1.00
C382   C     0.05359   0.75000   0.75000   0.01267  Uiso   1.00
C383   C     0.88843   0.25000   0.75000   0.01267  Uiso   1.00
C384   C     0.94641   0.25000   0.75000   0.01267  Uiso   1.00
C385   C     0.25000   0.25000   0.38843   0.01267  Uiso   1.00
C386   C     0.25000   0.25000   0.44641   0.01267  Uiso   1.00
C387   C     0.25000   0.75000   0.88843   0.01267  Uiso   1.00
C388   C     0.25000   0.75000   0.94641   0.01267  Uiso   1.00
C389   C     0.75000   0.25000   0.61157   0.01267  Uiso   1.00
C390   C     0.75000   0.25000   0.55359   0.01267  Uiso   1.00
C391   C     0.75000   0.75000   0.11157   0.01267  Uiso   1.00
C392   C     0.75000   0.75000   0.05359   0.01267  Uiso   1.00
C393   C     0.25000   0.25000   0.11157   0.01267  Uiso   1.00
C394   C     0.25000   0.25000   0.05359   0.01267  Uiso   1.00
C395   C     0.75000   0.75000   0.38843   0.01267  Uiso   1.00
C396   C     0.75000   0.75000   0.44641   0.01267  Uiso   1.00
C397   C     0.75000   0.25000   0.88843   0.01267  Uiso   1.00
C398   C     0.75000   0.25000   0.94641   0.01267  Uiso   1.00
C399   C     0.25000   0.75000   0.61157   0.01267  Uiso   1.00
C400   C     0.25000   0.75000   0.55359   0.01267  Uiso   1.00
C401   C     0.25000   0.61157   0.75000   0.01267  Uiso   1.00
C402   C     0.25000   0.55359   0.75000   0.01267  Uiso   1.00
C403   C     0.25000   0.11157   0.25000   0.01267  Uiso   1.00
C404   C     0.25000   0.05359   0.25000   0.01267  Uiso   1.00
C405   C     0.25000   0.38843   0.25000   0.01267  Uiso   1.00
C406   C     0.25000   0.44641   0.25000   0.01267  Uiso   1.00
C407   C     0.25000   0.88843   0.75000   0.01267  Uiso   1.00
C408   C     0.25000   0.94641   0.75000   0.01267  Uiso   1.00
C409   C     0.75000   0.61157   0.25000   0.01267  Uiso   1.00
C410   C     0.75000   0.55359   0.25000   0.01267  Uiso   1.00
C411   C     0.75000   0.11157   0.75000   0.01267  Uiso   1.00
C412   C     0.75000   0.05359   0.75000   0.01267  Uiso   1.00
C413   C     0.75000   0.38843   0.75000   0.01267  Uiso   1.00
C414   C     0.75000   0.44641   0.75000   0.01267  Uiso   1.00
C415   C     0.75000   0.88843   0.25000   0.01267  Uiso   1.00
C416   C     0.75000   0.94641   0.25000   0.01267  Uiso   1.00
O417   O     0.25000   0.75000   0.25000   0.01267  Uiso   1.00
O418   O     0.75000   0.25000   0.25000   0.01267  Uiso   1.00
O419   O     0.75000   0.75000   0.75000   0.01267  Uiso   1.00
O420   O     0.25000   0.25000   0.75000   0.01267  Uiso   1.00
O421   O     0.75000   0.25000   0.75000   0.01267  Uiso   1.00
O422   O     0.25000   0.25000   0.25000   0.01267  Uiso   1.00
O423   O     0.25000   0.75000   0.75000   0.01267  Uiso   1.00
O424   O     0.75000   0.75000   0.25000   0.01267  Uiso   1.00
loop_
_geom_bond_atom_site_label_1
_geom_bond_atom_site_label_2
_geom_bond_distance
_geom_bond_site_symmetry_2
_ccdc_geom_bond_type
Zn1    O417    1.947   .     S
Zn1    O35     1.944   .     S
Zn1    O86     1.944   .     S
Zn1    O140    1.944   .     S
Zn2    O418    1.947   .     S
Zn2    O47     1.944   .     S
Zn2    O110    1.944   .     S
Zn2    O176    1.944   .     S
Zn3    O420    1.947   .     S
Zn3    O170    1.944   .     S
Zn3    O53     1.944   .     S
Zn3    O116    1.944   .     S
Zn4    O419    1.947   .     S
Zn4    O59     1.944   .     S
Zn4    O122    1.944   .     S
Zn4    O152    1.944   .     S
Zn5    O418    1.947   .     S
Zn5    O119    1.944   .     S
Zn5    O149    1.944   .     S
Zn5    O62     1.944   .     S
Zn6    O420    1.947   .     S
Zn6    O143    1.944   .     S
Zn6    O68     1.944   .     S
Zn6    O125    1.944   .     S
Zn7    O420    1.947   .     S
Zn7    O71     1.944   .     S
Zn7    O98     1.944   .     S
Zn7    O164    1.944   .     S
Zn8    O420    1.947   .     S
Zn8    O83     1.944   .     S
Zn8    O137    1.944   .     S
Zn8    O38     1.944   .     S
Zn9    O417    1.947   .     S
Zn9    O95     1.944   .     S
Zn9    O161    1.944   .     S
Zn9    O74     1.944   .     S
Zn10   O419    1.947   .     S
Zn10   O107    1.944   .     S
Zn10   O173    1.944   .     S
Zn10   O50     1.944   .     S
Zn11   O417    1.947   .     S
Zn11   O167    1.944   .     S
Zn11   O56     1.944   .     S
Zn11   O113    1.944   .     S
Zn12   O417    1.947   .     S
Zn12   O146    1.944   .     S
Zn12   O65     1.944   .     S
Zn12   O128    1.944   .     S
Zn13   O418    1.947   .     S
Zn13   O131    1.944   .     S
Zn13   O44     1.944   .     S
Zn13   O89     1.944   .     S
Zn14   O419    1.947   .     S
Zn14   O134    1.944   .     S
Zn14   O41     1.944   .     S
Zn14   O92     1.944   .     S
Zn15   O419    1.947   .     S
Zn15   O155    1.944   .     S
Zn15   O80     1.944   .     S
Zn15   O101    1.944   .     S
Zn16   O418    1.947   .     S
Zn16   O158    1.944   .     S
Zn16   O77     1.944   .     S
Zn16   O104    1.944   .     S
Zn17   O421    1.947   .     S
Zn17   O179    1.944   .     S
Zn17   O233    1.944   .     S
Zn17   O284    1.944   .     S
Zn18   O424    1.947   .     S
Zn18   O182    1.944   .     S
Zn18   O236    1.944   .     S
Zn18   O281    1.944   .     S
Zn19   O422    1.947   .     S
Zn19   O227    1.944   .     S
Zn19   O278    1.944   .     S
Zn19   O185    1.944   .     S
Zn20   O423    1.947   .     S
Zn20   O191    1.944   .     S
Zn20   O257    1.944   .     S
Zn20   O320    1.944   .     S
Zn21   O422    1.947   .     S
Zn21   O194    1.944   .     S
Zn21   O260    1.944   .     S
Zn21   O317    1.944   .     S
Zn22   O424    1.947   .     S
Zn22   O203    1.944   .     S
Zn22   O269    1.944   .     S
Zn22   O296    1.944   .     S
Zn23   O421    1.947   .     S
Zn23   O206    1.944   .     S
Zn23   O272    1.944   .     S
Zn23   O293    1.944   .     S
Zn24   O422    1.947   .     S
Zn24   O287    1.944   .     S
Zn24   O212    1.944   .     S
Zn24   O266    1.944   .     S
Zn25   O422    1.947   .     S
Zn25   O215    1.944   .     S
Zn25   O245    1.944   .     S
Zn25   O308    1.944   .     S
Zn26   O423    1.947   .     S
Zn26   O218    1.944   .     S
Zn26   O248    1.944   .     S
Zn26   O305    1.944   .     S
Zn27   O421    1.947   .     S
Zn27   O239    1.944   .     S
Zn27   O302    1.944   .     S
Zn27   O221    1.944   .     S
Zn28   O424    1.947   .     S
Zn28   O251    1.944   .     S
Zn28   O314    1.944   .     S
Zn28   O197    1.944   .     S
Zn29   O423    1.947   .     S
Zn29   O263    1.944   .     S
Zn29   O290    1.944   .     S
Zn29   O209    1.944   .     S
Zn30   O423    1.947   .     S
Zn30   O275    1.944   .     S
Zn30   O188    1.944   .     S
Zn30   O230    1.944   .     S
Zn31   O424    1.947   .     S
Zn31   O299    1.944   .     S
Zn31   O224    1.944   .     S
Zn31   O242    1.944   .     S
Zn32   O421    1.947   .     S
Zn32   O311    1.944   .     S
Zn32   O200    1.944   .     S
Zn32   O254    1.944   .     S
H33    C34     0.949   .     S
C34    C286    1.389   .     A
C34    C332    1.385   .     A
O35    C321    1.261   .     A
H36    C37     0.949   .     S
C37    C289    1.389   1_545 A
C37    C334    1.385   .     A
O38    C323    1.261   .     A
H39    C40     0.949   .     S
C40    C292    1.389   .     A
C40    C322    1.385   .     A
O41    C331    1.261   .     A
H42    C43     0.949   .     S
C43    C295    1.389   1_545 A
C43    C324    1.385   .     A
O44    C333    1.261   .     A
H45    C46     0.949   .     S
C46    C298    1.389   .     A
C46    C336    1.385   .     A
O47    C325    1.261   .     A
H48    C49     0.949   .     S
C49    C301    1.389   1_565 A
C49    C330    1.385   .     A
O50    C327    1.261   .     A
H51    C52     0.949   .     S
C52    C304    1.389   .     A
C52    C326    1.385   .     A
O53    C335    1.261   .     A
H54    C55     0.949   .     S
C55    C307    1.389   1_565 A
C55    C328    1.385   .     A
O56    C329    1.261   .     A
H57    C58     0.949   .     S
C58    C310    1.389   .     A
C58    C322    1.385   .     A
O59    C331    1.261   .     A
H60    C61     0.949   .     S
C61    C313    1.389   1_545 A
C61    C324    1.385   .     A
O62    C333    1.261   .     A
H63    C64     0.949   .     S
C64    C316    1.389   .     A
C64    C332    1.385   .     A
O65    C321    1.261   .     A
H66    C67     0.949   .     S
C67    C319    1.389   1_545 A
C67    C334    1.385   .     A
O68    C323    1.261   .     A
H69    C70     0.949   .     S
C70    C274    1.389   .     A
C70    C326    1.385   .     A
O71    C335    1.261   .     A
H72    C73     0.949   .     S
C73    C277    1.389   1_565 A
C73    C328    1.385   .     A
O74    C329    1.261   .     A
H75    C76     0.949   .     S
C76    C280    1.389   .     A
C76    C336    1.385   .     A
O77    C325    1.261   .     A
H78    C79     0.949   .     S
C79    C283    1.389   1_565 A
C79    C330    1.385   .     A
O80    C327    1.261   .     A
H81    C82     0.949   .     S
C82    C226    1.389   .     A
C82    C346    1.385   .     A
O83    C337    1.261   .     A
H84    C85     0.949   .     S
C85    C229    1.389   1_554 A
C85    C348    1.385   .     A
O86    C339    1.261   .     A
H87    C88     0.949   .     S
C88    C232    1.389   1_554 A
C88    C340    1.385   .     A
O89    C347    1.261   .     A
H90    C91     0.949   .     S
C91    C235    1.389   .     A
C91    C338    1.385   .     A
O92    C345    1.261   .     A
H93    C94     0.949   .     S
C94    C262    1.389   .     A
C94    C350    1.385   .     A
O95    C341    1.261   .     A
H96    C97     0.949   .     S
C97    C265    1.389   1_556 A
C97    C352    1.385   .     A
O98    C343    1.261   .     A
H99    C100    0.949   .     S
C100   C268    1.389   1_556 A
C100   C344    1.385   .     A
O101   C351    1.261   .     A
H102   C103    0.949   .     S
C103   C271    1.389   .     A
C103   C342    1.385   .     A
O104   C349    1.261   .     A
H105   C106    0.949   .     S
C106   C250    1.389   .     A
C106   C338    1.385   .     A
O107   C345    1.261   .     A
H108   C109    0.949   .     S
C109   C253    1.389   1_554 A
C109   C340    1.385   .     A
O110   C347    1.261   .     A
H111   C112    0.949   .     S
C112   C256    1.389   1_554 A
C112   C348    1.385   .     A
O113   C339    1.261   .     A
H114   C115    0.949   .     S
C115   C259    1.389   .     A
C115   C346    1.385   .     A
O116   C337    1.261   .     A
H117   C118    0.949   .     S
C118   C238    1.389   .     A
C118   C342    1.385   .     A
O119   C349    1.261   .     A
H120   C121    0.949   .     S
C121   C241    1.389   1_556 A
C121   C344    1.385   .     A
O122   C351    1.261   .     A
H123   C124    0.949   .     S
C124   C244    1.389   1_556 A
C124   C352    1.385   .     A
O125   C343    1.261   .     A
H126   C127    0.949   .     S
C127   C247    1.389   .     A
C127   C350    1.385   .     A
O128   C341    1.261   .     A
H129   C130    0.949   .     S
C130   C214    1.389   .     A
C130   C362    1.385   .     A
O131   C353    1.261   .     A
H132   C133    0.949   .     S
C133   C217    1.389   .     A
C133   C354    1.385   .     A
O134   C361    1.261   .     A
H135   C136    0.949   .     S
C136   C220    1.389   1_455 A
C136   C364    1.385   .     A
O137   C355    1.261   .     A
H138   C139    0.949   .     S
C139   C223    1.389   1_455 A
C139   C356    1.385   .     A
O140   C363    1.261   .     A
H141   C142    0.949   .     S
C142   C178    1.389   .     A
C142   C366    1.385   .     A
O143   C357    1.261   .     A
H144   C145    0.949   .     S
C145   C181    1.389   .     A
C145   C358    1.385   .     A
O146   C365    1.261   .     A
H147   C148    0.949   .     S
C148   C184    1.389   1_655 A
C148   C368    1.385   .     A
O149   C359    1.261   .     A
H150   C151    0.949   .     S
C151   C187    1.389   1_655 A
C151   C360    1.385   .     A
O152   C367    1.261   .     A
H153   C154    0.949   .     S
C154   C190    1.389   .     A
C154   C354    1.385   .     A
O155   C361    1.261   .     A
H156   C157    0.949   .     S
C157   C193    1.389   .     A
C157   C362    1.385   .     A
O158   C353    1.261   .     A
H159   C160    0.949   .     S
C160   C196    1.389   1_455 A
C160   C356    1.385   .     A
O161   C363    1.261   .     A
H162   C163    0.949   .     S
C163   C199    1.389   1_455 A
C163   C364    1.385   .     A
O164   C355    1.261   .     A
H165   C166    0.949   .     S
C166   C202    1.389   .     A
C166   C358    1.385   .     A
O167   C365    1.261   .     A
H168   C169    0.949   .     S
C169   C205    1.389   .     A
C169   C366    1.385   .     A
O170   C357    1.261   .     A
H171   C172    0.949   .     S
C172   C208    1.389   1_655 A
C172   C360    1.385   .     A
O173   C367    1.261   .     A
H174   C175    0.949   .     S
C175   C211    1.389   1_655 A
C175   C368    1.385   .     A
O176   C359    1.261   .     A
H177   C178    0.949   .     S
C178   C380    1.385   .     A
O179   C369    1.261   .     A
H180   C181    0.949   .     S
C181   C370    1.385   .     A
O182   C379    1.261   .     A
H183   C184    0.949   .     S
C184   C148    1.389   1_455 A
C184   C382    1.385   .     A
O185   C371    1.261   .     A
H186   C187    0.949   .     S
C187   C151    1.389   1_455 A
C187   C372    1.385   .     A
O188   C381    1.261   .     A
H189   C190    0.949   .     S
C190   C376    1.385   .     A
O191   C373    1.261   .     A
H192   C193    0.949   .     S
C193   C374    1.385   .     A
O194   C375    1.261   .     A
H195   C196    0.949   .     S
C196   C160    1.389   1_655 A
C196   C384    1.385   .     A
O197   C377    1.261   .     A
H198   C199    0.949   .     S
C199   C163    1.389   1_655 A
C199   C378    1.385   .     A
O200   C383    1.261   .     A
H201   C202    0.949   .     S
C202   C370    1.385   .     A
O203   C379    1.261   .     A
H204   C205    0.949   .     S
C205   C380    1.385   .     A
O206   C369    1.261   .     A
H207   C208    0.949   .     S
C208   C172    1.389   1_455 A
C208   C372    1.385   .     A
O209   C381    1.261   .     A
H210   C211    0.949   .     S
C211   C175    1.389   1_455 A
C211   C382    1.385   .     A
O212   C371    1.261   .     A
H213   C214    0.949   .     S
C214   C374    1.385   .     A
O215   C375    1.261   .     A
H216   C217    0.949   .     S
C217   C376    1.385   .     A
O218   C373    1.261   .     A
H219   C220    0.949   .     S
C220   C136    1.389   1_655 A
C220   C378    1.385   .     A
O221   C383    1.261   .     A
H222   C223    0.949   .     S
C223   C139    1.389   1_655 A
C223   C384    1.385   .     A
O224   C377    1.261   .     A
H225   C226    0.949   .     S
C226   C396    1.385   .     A
O227   C385    1.261   .     A
H228   C229    0.949   .     S
C229   C85     1.389   1_556 A
C229   C398    1.385   .     A
O230   C387    1.261   .     A
H231   C232    0.949   .     S
C232   C88     1.389   1_556 A
C232   C388    1.385   .     A
O233   C397    1.261   .     A
H234   C235    0.949   .     S
C235   C386    1.385   .     A
O236   C395    1.261   .     A
H237   C238    0.949   .     S
C238   C400    1.385   .     A
O239   C389    1.261   .     A
H240   C241    0.949   .     S
C241   C121    1.389   1_554 A
C241   C394    1.385   .     A
O242   C391    1.261   .     A
H243   C244    0.949   .     S
C244   C124    1.389   1_554 A
C244   C392    1.385   .     A
O245   C393    1.261   .     A
H246   C247    0.949   .     S
C247   C390    1.385   .     A
O248   C399    1.261   .     A
H249   C250    0.949   .     S
C250   C386    1.385   .     A
O251   C395    1.261   .     A
H252   C253    0.949   .     S
C253   C109    1.389   1_556 A
C253   C388    1.385   .     A
O254   C397    1.261   .     A
H255   C256    0.949   .     S
C256   C112    1.389   1_556 A
C256   C398    1.385   .     A
O257   C387    1.261   .     A
H258   C259    0.949   .     S
C259   C396    1.385   .     A
O260   C385    1.261   .     A
H261   C262    0.949   .     S
C262   C390    1.385   .     A
O263   C399    1.261   .     A
H264   C265    0.949   .     S
C265   C97     1.389   1_554 A
C265   C392    1.385   .     A
O266   C393    1.261   .     A
H267   C268    0.949   .     S
C268   C100    1.389   1_554 A
C268   C394    1.385   .     A
O269   C391    1.261   .     A
H270   C271    0.949   .     S
C271   C400    1.385   .     A
O272   C389    1.261   .     A
H273   C274    0.949   .     S
C274   C410    1.385   .     A
O275   C401    1.261   .     A
H276   C277    0.949   .     S
C277   C73     1.389   1_545 A
C277   C412    1.385   .     A
O278   C403    1.261   .     A
H279   C280    0.949   .     S
C280   C402    1.385   .     A
O281   C409    1.261   .     A
H282   C283    0.949   .     S
C283   C79     1.389   1_545 A
C283   C404    1.385   .     A
O284   C411    1.261   .     A
H285   C286    0.949   .     S
C286   C414    1.385   .     A
O287   C405    1.261   .     A
H288   C289    0.949   .     S
C289   C37     1.389   1_565 A
C289   C416    1.385   .     A
O290   C407    1.261   .     A
H291   C292    0.949   .     S
C292   C406    1.385   .     A
O293   C413    1.261   .     A
H294   C295    0.949   .     S
C295   C43     1.389   1_565 A
C295   C408    1.385   .     A
O296   C415    1.261   .     A
H297   C298    0.949   .     S
C298   C402    1.385   .     A
O299   C409    1.261   .     A
H300   C301    0.949   .     S
C301   C49     1.389   1_545 A
C301   C404    1.385   .     A
O302   C411    1.261   .     A
H303   C304    0.949   .     S
C304   C410    1.385   .     A
O305   C401    1.261   .     A
H306   C307    0.949   .     S
C307   C55     1.389   1_545 A
C307   C412    1.385   .     A
O308   C403    1.261   .     A
H309   C310    0.949   .     S
C310   C406    1.385   .     A
O311   C413    1.261   .     A
H312   C313    0.949   .     S
C313   C61     1.389   1_565 A
C313   C408    1.385   .     A
O314   C415    1.261   .     A
H315   C316    0.949   .     S
C316   C414    1.385   .     A
O317   C405    1.261   .     A
H318   C319    0.949   .     S
C319   C67     1.389   1_565 A
C319   C416    1.385   .     A
O320   C407    1.261   .     A
C321   C322    1.501   .     S
C323   C324    1.501   .     S
C325   C326    1.501   .     S
C327   C328    1.501   .     S
C329   C330    1.501   .     S
C331   C332    1.501   .     S
C333   C334    1.501   .     S
C335   C336    1.501   .     S
C337   C338    1.501   .     S
C339   C340    1.501   .     S
C341   C342    1.501   .     S
C343   C344    1.501   .     S
C345   C346    1.501   .     S
C347   C348    1.501   .     S
C349   C350    1.501   .     S
C351   C352    1.501   .     S
C353   C354    1.501   .     S
C355   C356    1.501   .     S
C357   C358    1.501   .     S
C359   C360    1.501   .     S
C361   C362    1.501   .     S
C363   C364    1.501   .     S
C365   C366    1.501   .     S
C367   C368    1.501   .     S
C369   C370    1.501   .     S
C371   C372    1.501   .     S
C373   C374    1.501   .     S
C375   C376    1.501   .     S
C377   C378    1.501   .     S
C379   C380    1.501   .     S
C381   C382    1.501   .     S
C383   C384    1.501   .     S
C385   C386    1.501   .     S
C387   C388    1.501   .     S
C389   C390    1.501   .     S
C391   C392    1.501   .     S
C393   C394    1.501   .     S
C395   C396    1.501   .     S
C397   C398    1.501   .     S
C399   C400    1.501   .     S
C401   C402    1.501   .     S
C403   C404    1.501   .     S
C405   C406    1.501   .     S
C407   C408    1.501   .     S
C409   C410    1.501   .     S
C411   C412    1.501   .     S
C413   C414    1.501   .     S
C415   C416    1.501   .     S
