data_KOJZAL_clean\(2)
_audit_creation_date              2015-01-20
_audit_creation_method            'Materials Studio'
_symmetry_space_group_name_H-M    'P1'
_symmetry_Int_Tables_number       1
_symmetry_cell_setting            triclinic
loop_
_symmetry_equiv_pos_as_xyz
  x,y,z
_cell_length_a                    1.0
_cell_length_b                    1.0
_cell_length_c                    1.0
_cell_angle_alpha                 90.0000
_cell_angle_beta                  90.0000
_cell_angle_gamma                 90.0000
loop_
_atom_site_label
_atom_site_type_symbol
_atom_site_fract_x
_atom_site_fract_y
_atom_site_fract_z
_atom_site_U_iso_or_equiv
_atom_site_adp_type
_atom_site_occupancy
A1_4 N 1.00000 1.00000 3.00000 Uiso 1.00
A1_5 N 1.00000 1.00000 4.00000 Uiso 1.00
A1_6 N 1.00000 1.00000 5.00000 Uiso 1.00
A1_7 N 1.00000 1.00000 6.00000 Uiso 1.00
A1_8 N 1.00000 1.00000 7.00000 Uiso 1.00
A1_9 N 1.00000 1.00000 8.00000 Uiso 1.00
A1_10 N 1.00000 1.00000 9.00000 Uiso 1.00
A1_2 N 1.00000 1.00000 10.00000 Uiso 1.00
A1_1 N 1.00000 2.00000 10.00000 Uiso 1.00
A1_2 N 1.00000 2.00000 1.00000 Uiso 1.00
A1_3 N 1.00000 2.00000 2.00000 Uiso 1.00
A1_4 N 1.00000 2.00000 3.00000 Uiso 1.00
A1_5 N 1.00000 2.00000 4.00000 Uiso 1.00
A1_6 N 1.00000 2.00000 5.00000 Uiso 1.00
A1_7 N 1.00000 2.00000 6.00000 Uiso 1.00
A1_8 N 1.00000 2.00000 7.00000 Uiso 1.00
A1_9 N 1.00000 2.00000 8.00000 Uiso 1.00
A1_10 N 1.00000 2.00000 9.00000 Uiso 1.00
A1_3 N 1.00000 2.00000 10.00000 Uiso 1.00
A1_1 N 1.00000 3.00000 10.00000 Uiso 1.00
A1_2 N 1.00000 3.00000 1.00000 Uiso 1.00
A1_3 N 1.00000 3.00000 2.00000 Uiso 1.00
A1_4 N 1.00000 3.00000 3.00000 Uiso 1.00
A1_5 N 1.00000 3.00000 4.00000 Uiso 1.00
A1_6 N 1.00000 3.00000 5.00000 Uiso 1.00
A1_7 N 1.00000 3.00000 6.00000 Uiso 1.00
A1_8 N 1.00000 3.00000 7.00000 Uiso 1.00
A1_9 N 1.00000 3.00000 8.00000 Uiso 1.00
A1_10 N 1.00000 3.00000 9.00000 Uiso 1.00
A1_4 N 1.00000 3.00000 10.00000 Uiso 1.00
A1_1 N 1.00000 4.00000 10.00000 Uiso 1.00
A1_2 N 1.00000 4.00000 1.00000 Uiso 1.00
A1_3 N 1.00000 4.00000 2.00000 Uiso 1.00
A1_4 N 1.00000 4.00000 3.00000 Uiso 1.00
A1_5 N 1.00000 4.00000 4.00000 Uiso 1.00
A1_6 N 1.00000 4.00000 5.00000 Uiso 1.00
A1_7 N 1.00000 4.00000 6.00000 Uiso 1.00
A1_8 N 1.00000 4.00000 7.00000 Uiso 1.00
A1_9 N 1.00000 4.00000 8.00000 Uiso 1.00
A1_10 N 1.00000 4.00000 9.00000 Uiso 1.00
A1_5 N 1.00000 4.00000 10.00000 Uiso 1.00
A1_1 N 1.00000 5.00000 10.00000 Uiso 1.00
A1_2 N 1.00000 5.00000 1.00000 Uiso 1.00
A1_3 N 1.00000 5.00000 2.00000 Uiso 1.00
A1_4 N 1.00000 5.00000 3.00000 Uiso 1.00
A1_5 N 1.00000 5.00000 4.00000 Uiso 1.00
A1_6 N 1.00000 5.00000 5.00000 Uiso 1.00
A1_7 N 1.00000 5.00000 6.00000 Uiso 1.00
A1_8 N 1.00000 5.00000 7.00000 Uiso 1.00
A1_9 N 1.00000 5.00000 8.00000 Uiso 1.00
A1_10 N 1.00000 5.00000 9.00000 Uiso 1.00
A1_6 N 1.00000 5.00000 10.00000 Uiso 1.00
A1_1 N 1.00000 6.00000 10.00000 Uiso 1.00
A1_2 N 1.00000 6.00000 1.00000 Uiso 1.00
A1_3 N 1.00000 6.00000 2.00000 Uiso 1.00
A1_4 N 1.00000 6.00000 3.00000 Uiso 1.00
A1_5 N 1.00000 6.00000 4.00000 Uiso 1.00
A1_6 N 1.00000 6.00000 5.00000 Uiso 1.00
A1_7 N 1.00000 6.00000 6.00000 Uiso 1.00
A1_8 N 1.00000 6.00000 7.00000 Uiso 1.00
A1_9 N 1.00000 6.00000 8.00000 Uiso 1.00
A1_10 N 1.00000 6.00000 9.00000 Uiso 1.00
A1_7 N 1.00000 6.00000 10.00000 Uiso 1.00
A1_1 N 1.00000 7.00000 10.00000 Uiso 1.00
A1_2 N 1.00000 7.00000 1.00000 Uiso 1.00
A1_3 N 1.00000 7.00000 2.00000 Uiso 1.00
A1_4 N 1.00000 7.00000 3.00000 Uiso 1.00
A1_5 N 1.00000 7.00000 4.00000 Uiso 1.00
A1_6 N 1.00000 7.00000 5.00000 Uiso 1.00
A1_7 N 1.00000 7.00000 6.00000 Uiso 1.00
A1_8 N 1.00000 7.00000 7.00000 Uiso 1.00
A1_9 N 1.00000 7.00000 8.00000 Uiso 1.00
A1_10 N 1.00000 7.00000 9.00000 Uiso 1.00
A1_8 N 1.00000 7.00000 10.00000 Uiso 1.00
A1_1 N 1.00000 8.00000 10.00000 Uiso 1.00
A1_2 N 1.00000 8.00000 1.00000 Uiso 1.00
A1_3 N 1.00000 8.00000 2.00000 Uiso 1.00
A1_4 N 1.00000 8.00000 3.00000 Uiso 1.00
A1_5 N 1.00000 8.00000 4.00000 Uiso 1.00
A1_6 N 1.00000 8.00000 5.00000 Uiso 1.00
A1_7 N 1.00000 8.00000 6.00000 Uiso 1.00
A1_8 N 1.00000 8.00000 7.00000 Uiso 1.00
A1_9 N 1.00000 8.00000 8.00000 Uiso 1.00
A1_10 N 1.00000 8.00000 9.00000 Uiso 1.00
A1_9 N 1.00000 8.00000 10.00000 Uiso 1.00
A1_1 N 1.00000 9.00000 10.00000 Uiso 1.00
A1_2 N 1.00000 9.00000 1.00000 Uiso 1.00
A1_3 N 1.00000 9.00000 2.00000 Uiso 1.00
A1_4 N 1.00000 9.00000 3.00000 Uiso 1.00
A1_5 N 1.00000 9.00000 4.00000 Uiso 1.00
A1_6 N 1.00000 9.00000 5.00000 Uiso 1.00
A1_7 N 1.00000 9.00000 6.00000 Uiso 1.00
A1_8 N 1.00000 9.00000 7.00000 Uiso 1.00
A1_9 N 1.00000 9.00000 8.00000 Uiso 1.00
A1_10 N 1.00000 9.00000 9.00000 Uiso 1.00
A1_10 N 1.00000 9.00000 10.00000 Uiso 1.00
A1_1 N 1.00000 10.00000 10.00000 Uiso 1.00
A1_2 N 1.00000 10.00000 1.00000 Uiso 1.00
A1_3 N 1.00000 10.00000 2.00000 Uiso 1.00
A1_4 N 1.00000 10.00000 3.00000 Uiso 1.00
A1_5 N 1.00000 10.00000 4.00000 Uiso 1.00
A1_6 N 1.00000 10.00000 5.00000 Uiso 1.00
A1_7 N 1.00000 10.00000 6.00000 Uiso 1.00
A1_8 N 1.00000 10.00000 7.00000 Uiso 1.00
A1_9 N 1.00000 10.00000 8.00000 Uiso 1.00
A1_10 N 1.00000 10.00000 9.00000 Uiso 1.00
A2 N 2.00000 10.00000 10.00000 Uiso 1.00
A2_1 N 2.00000 10.00000 10.00000 Uiso 1.00
A2_1 N 2.00000 1.00000 10.00000 Uiso 1.00
A2_2 N 2.00000 1.00000 1.00000 Uiso 1.00
A2_3 N 2.00000 1.00000 2.00000 Uiso 1.00
A2_4 N 2.00000 1.00000 3.00000 Uiso 1.00
A2_5 N 2.00000 1.00000 4.00000 Uiso 1.00
A2_6 N 2.00000 1.00000 5.00000 Uiso 1.00
A2_7 N 2.00000 1.00000 6.00000 Uiso 1.00
A2_8 N 2.00000 1.00000 7.00000 Uiso 1.00
A2_9 N 2.00000 1.00000 8.00000 Uiso 1.00
A2_10 N 2.00000 1.00000 9.00000 Uiso 1.00
A2_2 N 2.00000 1.00000 10.00000 Uiso 1.00
A2_1 N 2.00000 2.00000 10.00000 Uiso 1.00
A2_2 N 2.00000 2.00000 1.00000 Uiso 1.00
A2_3 N 2.00000 2.00000 2.00000 Uiso 1.00
A2_4 N 2.00000 2.00000 3.00000 Uiso 1.00
A2_5 N 2.00000 2.00000 4.00000 Uiso 1.00
A2_6 N 2.00000 2.00000 5.00000 Uiso 1.00
A2_7 N 2.00000 2.00000 6.00000 Uiso 1.00
A2_8 N 2.00000 2.00000 7.00000 Uiso 1.00
A2_9 N 2.00000 2.00000 8.00000 Uiso 1.00
A2_10 N 2.00000 2.00000 9.00000 Uiso 1.00
A2_3 N 2.00000 2.00000 10.00000 Uiso 1.00
A2_1 N 2.00000 3.00000 10.00000 Uiso 1.00
A2_2 N 2.00000 3.00000 1.00000 Uiso 1.00
A2_3 N 2.00000 3.00000 2.00000 Uiso 1.00
A2_4 N 2.00000 3.00000 3.00000 Uiso 1.00
A2_5 N 2.00000 3.00000 4.00000 Uiso 1.00
A2_6 N 2.00000 3.00000 5.00000 Uiso 1.00
A2_7 N 2.00000 3.00000 6.00000 Uiso 1.00
A2_8 N 2.00000 3.00000 7.00000 Uiso 1.00
A2_9 N 2.00000 3.00000 8.00000 Uiso 1.00
A2_10 N 2.00000 3.00000 9.00000 Uiso 1.00
A2_4 N 2.00000 3.00000 10.00000 Uiso 1.00
A2_1 N 2.00000 4.00000 10.00000 Uiso 1.00
A2_2 N 2.00000 4.00000 1.00000 Uiso 1.00
A2_3 N 2.00000 4.00000 2.00000 Uiso 1.00
A2_4 N 2.00000 4.00000 3.00000 Uiso 1.00
A2_5 N 2.00000 4.00000 4.00000 Uiso 1.00
A2_6 N 2.00000 4.00000 5.00000 Uiso 1.00
A2_7 N 2.00000 4.00000 6.00000 Uiso 1.00
A2_8 N 2.00000 4.00000 7.00000 Uiso 1.00
A2_9 N 2.00000 4.00000 8.00000 Uiso 1.00
A2_10 N 2.00000 4.00000 9.00000 Uiso 1.00
A2_5 N 2.00000 4.00000 10.00000 Uiso 1.00
A2_1 N 2.00000 5.00000 10.00000 Uiso 1.00
A2_2 N 2.00000 5.00000 1.00000 Uiso 1.00
A2_3 N 2.00000 5.00000 2.00000 Uiso 1.00
A2_4 N 2.00000 5.00000 3.00000 Uiso 1.00
A2_5 N 2.00000 5.00000 4.00000 Uiso 1.00
A2_6 N 2.00000 5.00000 5.00000 Uiso 1.00
A2_7 N 2.00000 5.00000 6.00000 Uiso 1.00
A2_8 N 2.00000 5.00000 7.00000 Uiso 1.00
A2_9 N 2.00000 5.00000 8.00000 Uiso 1.00
A2_10 N 2.00000 5.00000 9.00000 Uiso 1.00
A2_6 N 2.00000 5.00000 10.00000 Uiso 1.00
A2_1 N 2.00000 6.00000 10.00000 Uiso 1.00
A2_2 N 2.00000 6.00000 1.00000 Uiso 1.00
A2_3 N 2.00000 6.00000 2.00000 Uiso 1.00
A2_4 N 2.00000 6.00000 3.00000 Uiso 1.00
A2_5 N 2.00000 6.00000 4.00000 Uiso 1.00
A2_6 N 2.00000 6.00000 5.00000 Uiso 1.00
A2_7 N 2.00000 6.00000 6.00000 Uiso 1.00
A2_8 N 2.00000 6.00000 7.00000 Uiso 1.00
A2_9 N 2.00000 6.00000 8.00000 Uiso 1.00
A2_10 N 2.00000 6.00000 9.00000 Uiso 1.00
A2_7 N 2.00000 6.00000 10.00000 Uiso 1.00
A2_1 N 2.00000 7.00000 10.00000 Uiso 1.00
A2_2 N 2.00000 7.00000 1.00000 Uiso 1.00
A2_3 N 2.00000 7.00000 2.00000 Uiso 1.00
A2_4 N 2.00000 7.00000 3.00000 Uiso 1.00
A2_5 N 2.00000 7.00000 4.00000 Uiso 1.00
A2_6 N 2.00000 7.00000 5.00000 Uiso 1.00
A2_7 N 2.00000 7.00000 6.00000 Uiso 1.00
A2_8 N 2.00000 7.00000 7.00000 Uiso 1.00
A2_9 N 2.00000 7.00000 8.00000 Uiso 1.00
A2_10 N 2.00000 7.00000 9.00000 Uiso 1.00
A2_8 N 2.00000 7.00000 10.00000 Uiso 1.00
A2_1 N 2.00000 8.00000 10.00000 Uiso 1.00
A2_2 N 2.00000 8.00000 1.00000 Uiso 1.00
A2_3 N 2.00000 8.00000 2.00000 Uiso 1.00
A2_4 N 2.00000 8.00000 3.00000 Uiso 1.00
A2_5 N 2.00000 8.00000 4.00000 Uiso 1.00
A2_6 N 2.00000 8.00000 5.00000 Uiso 1.00
A2_7 N 2.00000 8.00000 6.00000 Uiso 1.00
A2_8 N 2.00000 8.00000 7.00000 Uiso 1.00
A2_9 N 2.00000 8.00000 8.00000 Uiso 1.00
A2_10 N 2.00000 8.00000 9.00000 Uiso 1.00
A2_9 N 2.00000 8.00000 10.00000 Uiso 1.00
A2_1 N 2.00000 9.00000 10.00000 Uiso 1.00
A2_2 N 2.00000 9.00000 1.00000 Uiso 1.00
A2_3 N 2.00000 9.00000 2.00000 Uiso 1.00
A2_4 N 2.00000 9.00000 3.00000 Uiso 1.00
A2_5 N 2.00000 9.00000 4.00000 Uiso 1.00
A2_6 N 2.00000 9.00000 5.00000 Uiso 1.00
A2_7 N 2.00000 9.00000 6.00000 Uiso 1.00
A2_8 N 2.00000 9.00000 7.00000 Uiso 1.00
A2_9 N 2.00000 9.00000 8.00000 Uiso 1.00
A2_10 N 2.00000 9.00000 9.00000 Uiso 1.00
A2_10 N 2.00000 9.00000 10.00000 Uiso 1.00
A2_1 N 2.00000 10.00000 10.00000 Uiso 1.00
A2_2 N 2.00000 10.00000 1.00000 Uiso 1.00
A2_3 N 2.00000 10.00000 2.00000 Uiso 1.00
A2_4 N 2.00000 10.00000 3.00000 Uiso 1.00
A2_5 N 2.00000 10.00000 4.00000 Uiso 1.00
A2_6 N 2.00000 10.00000 5.00000 Uiso 1.00
A2_7 N 2.00000 10.00000 6.00000 Uiso 1.00
A2_8 N 2.00000 10.00000 7.00000 Uiso 1.00
A2_9 N 2.00000 10.00000 8.00000 Uiso 1.00
A2_10 N 2.00000 10.00000 9.00000 Uiso 1.00
A3 N 3.00000 10.00000 10.00000 Uiso 1.00
A3_1 N 3.00000 10.00000 10.00000 Uiso 1.00
A3_1 N 3.00000 1.00000 10.00000 Uiso 1.00
A3_2 N 3.00000 1.00000 1.00000 Uiso 1.00
A3_3 N 3.00000 1.00000 2.00000 Uiso 1.00
A3_4 N 3.00000 1.00000 3.00000 Uiso 1.00
A3_5 N 3.00000 1.00000 4.00000 Uiso 1.00
A3_6 N 3.00000 1.00000 5.00000 Uiso 1.00
A3_7 N 3.00000 1.00000 6.00000 Uiso 1.00
A3_8 N 3.00000 1.00000 7.00000 Uiso 1.00
A3_9 N 3.00000 1.00000 8.00000 Uiso 1.00
A3_10 N 3.00000 1.00000 9.00000 Uiso 1.00
A3_2 N 3.00000 1.00000 10.00000 Uiso 1.00
A3_1 N 3.00000 2.00000 10.00000 Uiso 1.00
A3_2 N 3.00000 2.00000 1.00000 Uiso 1.00
A3_3 N 3.00000 2.00000 2.00000 Uiso 1.00
A3_4 N 3.00000 2.00000 3.00000 Uiso 1.00
A3_5 N 3.00000 2.00000 4.00000 Uiso 1.00
A3_6 N 3.00000 2.00000 5.00000 Uiso 1.00
A3_7 N 3.00000 2.00000 6.00000 Uiso 1.00
A3_8 N 3.00000 2.00000 7.00000 Uiso 1.00
A3_9 N 3.00000 2.00000 8.00000 Uiso 1.00
A3_10 N 3.00000 2.00000 9.00000 Uiso 1.00
A3_3 N 3.00000 2.00000 10.00000 Uiso 1.00
A3_1 N 3.00000 3.00000 10.00000 Uiso 1.00
A3_2 N 3.00000 3.00000 1.00000 Uiso 1.00
A3_3 N 3.00000 3.00000 2.00000 Uiso 1.00
A3_4 N 3.00000 3.00000 3.00000 Uiso 1.00
A3_5 N 3.00000 3.00000 4.00000 Uiso 1.00
A3_6 N 3.00000 3.00000 5.00000 Uiso 1.00
A3_7 N 3.00000 3.00000 6.00000 Uiso 1.00
A3_8 N 3.00000 3.00000 7.00000 Uiso 1.00
A3_9 N 3.00000 3.00000 8.00000 Uiso 1.00
A3_10 N 3.00000 3.00000 9.00000 Uiso 1.00
A3_4 N 3.00000 3.00000 10.00000 Uiso 1.00
A3_1 N 3.00000 4.00000 10.00000 Uiso 1.00
A3_2 N 3.00000 4.00000 1.00000 Uiso 1.00
A3_3 N 3.00000 4.00000 2.00000 Uiso 1.00
A3_4 N 3.00000 4.00000 3.00000 Uiso 1.00
A3_5 N 3.00000 4.00000 4.00000 Uiso 1.00
A3_6 N 3.00000 4.00000 5.00000 Uiso 1.00
A3_7 N 3.00000 4.00000 6.00000 Uiso 1.00
A3_8 N 3.00000 4.00000 7.00000 Uiso 1.00
A3_9 N 3.00000 4.00000 8.00000 Uiso 1.00
A3_10 N 3.00000 4.00000 9.00000 Uiso 1.00
A3_5 N 3.00000 4.00000 10.00000 Uiso 1.00
A3_1 N 3.00000 5.00000 10.00000 Uiso 1.00
A3_2 N 3.00000 5.00000 1.00000 Uiso 1.00
A3_3 N 3.00000 5.00000 2.00000 Uiso 1.00
A3_4 N 3.00000 5.00000 3.00000 Uiso 1.00
A3_5 N 3.00000 5.00000 4.00000 Uiso 1.00
A3_6 N 3.00000 5.00000 5.00000 Uiso 1.00
A3_7 N 3.00000 5.00000 6.00000 Uiso 1.00
A3_8 N 3.00000 5.00000 7.00000 Uiso 1.00
A3_9 N 3.00000 5.00000 8.00000 Uiso 1.00
A3_10 N 3.00000 5.00000 9.00000 Uiso 1.00
A3_6 N 3.00000 5.00000 10.00000 Uiso 1.00
A3_1 N 3.00000 6.00000 10.00000 Uiso 1.00
A3_2 N 3.00000 6.00000 1.00000 Uiso 1.00
A3_3 N 3.00000 6.00000 2.00000 Uiso 1.00
A3_4 N 3.00000 6.00000 3.00000 Uiso 1.00
A3_5 N 3.00000 6.00000 4.00000 Uiso 1.00
A3_6 N 3.00000 6.00000 5.00000 Uiso 1.00
A3_7 N 3.00000 6.00000 6.00000 Uiso 1.00
A3_8 N 3.00000 6.00000 7.00000 Uiso 1.00
A3_9 N 3.00000 6.00000 8.00000 Uiso 1.00
A3_10 N 3.00000 6.00000 9.00000 Uiso 1.00
A3_7 N 3.00000 6.00000 10.00000 Uiso 1.00
A3_1 N 3.00000 7.00000 10.00000 Uiso 1.00
A3_2 N 3.00000 7.00000 1.00000 Uiso 1.00
A3_3 N 3.00000 7.00000 2.00000 Uiso 1.00
A3_4 N 3.00000 7.00000 3.00000 Uiso 1.00
A3_5 N 3.00000 7.00000 4.00000 Uiso 1.00
A3_6 N 3.00000 7.00000 5.00000 Uiso 1.00
A3_7 N 3.00000 7.00000 6.00000 Uiso 1.00
A3_8 N 3.00000 7.00000 7.00000 Uiso 1.00
A3_9 N 3.00000 7.00000 8.00000 Uiso 1.00
A3_10 N 3.00000 7.00000 9.00000 Uiso 1.00
A3_8 N 3.00000 7.00000 10.00000 Uiso 1.00
A3_1 N 3.00000 8.00000 10.00000 Uiso 1.00
A3_2 N 3.00000 8.00000 1.00000 Uiso 1.00
A3_3 N 3.00000 8.00000 2.00000 Uiso 1.00
A3_4 N 3.00000 8.00000 3.00000 Uiso 1.00
A3_5 N 3.00000 8.00000 4.00000 Uiso 1.00
A3_6 N 3.00000 8.00000 5.00000 Uiso 1.00
A3_7 N 3.00000 8.00000 6.00000 Uiso 1.00
A3_8 N 3.00000 8.00000 7.00000 Uiso 1.00
A3_9 N 3.00000 8.00000 8.00000 Uiso 1.00
A3_10 N 3.00000 8.00000 9.00000 Uiso 1.00
A3_9 N 3.00000 8.00000 10.00000 Uiso 1.00
A3_1 N 3.00000 9.00000 10.00000 Uiso 1.00
A3_2 N 3.00000 9.00000 1.00000 Uiso 1.00
A3_3 N 3.00000 9.00000 2.00000 Uiso 1.00
A3_4 N 3.00000 9.00000 3.00000 Uiso 1.00
A3_5 N 3.00000 9.00000 4.00000 Uiso 1.00
A3_6 N 3.00000 9.00000 5.00000 Uiso 1.00
A3_7 N 3.00000 9.00000 6.00000 Uiso 1.00
A3_8 N 3.00000 9.00000 7.00000 Uiso 1.00
A3_9 N 3.00000 9.00000 8.00000 Uiso 1.00
A3_10 N 3.00000 9.00000 9.00000 Uiso 1.00
A3_10 N 3.00000 9.00000 10.00000 Uiso 1.00
A3_1 N 3.00000 10.00000 10.00000 Uiso 1.00
A3_2 N 3.00000 10.00000 1.00000 Uiso 1.00
A3_3 N 3.00000 10.00000 2.00000 Uiso 1.00
A3_4 N 3.00000 10.00000 3.00000 Uiso 1.00
A3_5 N 3.00000 10.00000 4.00000 Uiso 1.00
A3_6 N 3.00000 10.00000 5.00000 Uiso 1.00
A3_7 N 3.00000 10.00000 6.00000 Uiso 1.00
A3_8 N 3.00000 10.00000 7.00000 Uiso 1.00
A3_9 N 3.00000 10.00000 8.00000 Uiso 1.00
A3_10 N 3.00000 10.00000 9.00000 Uiso 1.00
A4 N 4.00000 10.00000 10.00000 Uiso 1.00
A4_1 N 4.00000 10.00000 10.00000 Uiso 1.00
A4_1 N 4.00000 1.00000 10.00000 Uiso 1.00
A4_2 N 4.00000 1.00000 1.00000 Uiso 1.00
A4_3 N 4.00000 1.00000 2.00000 Uiso 1.00
A4_4 N 4.00000 1.00000 3.00000 Uiso 1.00
A4_5 N 4.00000 1.00000 4.00000 Uiso 1.00
A4_6 N 4.00000 1.00000 5.00000 Uiso 1.00
A4_7 N 4.00000 1.00000 6.00000 Uiso 1.00
A4_8 N 4.00000 1.00000 7.00000 Uiso 1.00
A4_9 N 4.00000 1.00000 8.00000 Uiso 1.00
A4_10 N 4.00000 1.00000 9.00000 Uiso 1.00
A4_2 N 4.00000 1.00000 10.00000 Uiso 1.00
A4_1 N 4.00000 2.00000 10.00000 Uiso 1.00
A4_2 N 4.00000 2.00000 1.00000 Uiso 1.00
A4_3 N 4.00000 2.00000 2.00000 Uiso 1.00
A4_4 N 4.00000 2.00000 3.00000 Uiso 1.00
A4_5 N 4.00000 2.00000 4.00000 Uiso 1.00
A4_6 N 4.00000 2.00000 5.00000 Uiso 1.00
A4_7 N 4.00000 2.00000 6.00000 Uiso 1.00
A4_8 N 4.00000 2.00000 7.00000 Uiso 1.00
A4_9 N 4.00000 2.00000 8.00000 Uiso 1.00
A4_10 N 4.00000 2.00000 9.00000 Uiso 1.00
A4_3 N 4.00000 2.00000 10.00000 Uiso 1.00
A4_1 N 4.00000 3.00000 10.00000 Uiso 1.00
A4_2 N 4.00000 3.00000 1.00000 Uiso 1.00
A4_3 N 4.00000 3.00000 2.00000 Uiso 1.00
A4_4 N 4.00000 3.00000 3.00000 Uiso 1.00
A4_5 N 4.00000 3.00000 4.00000 Uiso 1.00
A4_6 N 4.00000 3.00000 5.00000 Uiso 1.00
A4_7 N 4.00000 3.00000 6.00000 Uiso 1.00
A4_8 N 4.00000 3.00000 7.00000 Uiso 1.00
A4_9 N 4.00000 3.00000 8.00000 Uiso 1.00
A4_10 N 4.00000 3.00000 9.00000 Uiso 1.00
A4_4 N 4.00000 3.00000 10.00000 Uiso 1.00
A4_1 N 4.00000 4.00000 10.00000 Uiso 1.00
A4_2 N 4.00000 4.00000 1.00000 Uiso 1.00
A4_3 N 4.00000 4.00000 2.00000 Uiso 1.00
A4_4 N 4.00000 4.00000 3.00000 Uiso 1.00
A4_5 N 4.00000 4.00000 4.00000 Uiso 1.00
A4_6 N 4.00000 4.00000 5.00000 Uiso 1.00
A4_7 N 4.00000 4.00000 6.00000 Uiso 1.00
A4_8 N 4.00000 4.00000 7.00000 Uiso 1.00
A4_9 N 4.00000 4.00000 8.00000 Uiso 1.00
A4_10 N 4.00000 4.00000 9.00000 Uiso 1.00
A4_5 N 4.00000 4.00000 10.00000 Uiso 1.00
A4_1 N 4.00000 5.00000 10.00000 Uiso 1.00
A4_2 N 4.00000 5.00000 1.00000 Uiso 1.00
A4_3 N 4.00000 5.00000 2.00000 Uiso 1.00
A4_4 N 4.00000 5.00000 3.00000 Uiso 1.00
A4_5 N 4.00000 5.00000 4.00000 Uiso 1.00
A4_6 N 4.00000 5.00000 5.00000 Uiso 1.00
A4_7 N 4.00000 5.00000 6.00000 Uiso 1.00
A4_8 N 4.00000 5.00000 7.00000 Uiso 1.00
A4_9 N 4.00000 5.00000 8.00000 Uiso 1.00
A4_10 N 4.00000 5.00000 9.00000 Uiso 1.00
A4_6 N 4.00000 5.00000 10.00000 Uiso 1.00
A4_1 N 4.00000 6.00000 10.00000 Uiso 1.00
A4_2 N 4.00000 6.00000 1.00000 Uiso 1.00
A4_3 N 4.00000 6.00000 2.00000 Uiso 1.00
A4_4 N 4.00000 6.00000 3.00000 Uiso 1.00
A4_5 N 4.00000 6.00000 4.00000 Uiso 1.00
A4_6 N 4.00000 6.00000 5.00000 Uiso 1.00
A4_7 N 4.00000 6.00000 6.00000 Uiso 1.00
A4_8 N 4.00000 6.00000 7.00000 Uiso 1.00
A4_9 N 4.00000 6.00000 8.00000 Uiso 1.00
A4_10 N 4.00000 6.00000 9.00000 Uiso 1.00
A4_7 N 4.00000 6.00000 10.00000 Uiso 1.00
A4_1 N 4.00000 7.00000 10.00000 Uiso 1.00
A4_2 N 4.00000 7.00000 1.00000 Uiso 1.00
A4_3 N 4.00000 7.00000 2.00000 Uiso 1.00
A4_4 N 4.00000 7.00000 3.00000 Uiso 1.00
A4_5 N 4.00000 7.00000 4.00000 Uiso 1.00
A4_6 N 4.00000 7.00000 5.00000 Uiso 1.00
A4_7 N 4.00000 7.00000 6.00000 Uiso 1.00
A4_8 N 4.00000 7.00000 7.00000 Uiso 1.00
A4_9 N 4.00000 7.00000 8.00000 Uiso 1.00
A4_10 N 4.00000 7.00000 9.00000 Uiso 1.00
A4_8 N 4.00000 7.00000 10.00000 Uiso 1.00
A4_1 N 4.00000 8.00000 10.00000 Uiso 1.00
A4_2 N 4.00000 8.00000 1.00000 Uiso 1.00
A4_3 N 4.00000 8.00000 2.00000 Uiso 1.00
A4_4 N 4.00000 8.00000 3.00000 Uiso 1.00
A4_5 N 4.00000 8.00000 4.00000 Uiso 1.00
A4_6 N 4.00000 8.00000 5.00000 Uiso 1.00
A4_7 N 4.00000 8.00000 6.00000 Uiso 1.00
A4_8 N 4.00000 8.00000 7.00000 Uiso 1.00
A4_9 N 4.00000 8.00000 8.00000 Uiso 1.00
A4_10 N 4.00000 8.00000 9.00000 Uiso 1.00
A4_9 N 4.00000 8.00000 10.00000 Uiso 1.00
A4_1 N 4.00000 9.00000 10.00000 Uiso 1.00
A4_2 N 4.00000 9.00000 1.00000 Uiso 1.00
A4_3 N 4.00000 9.00000 2.00000 Uiso 1.00
A4_4 N 4.00000 9.00000 3.00000 Uiso 1.00
A4_5 N 4.00000 9.00000 4.00000 Uiso 1.00
A4_6 N 4.00000 9.00000 5.00000 Uiso 1.00
A4_7 N 4.00000 9.00000 6.00000 Uiso 1.00
A4_8 N 4.00000 9.00000 7.00000 Uiso 1.00
A4_9 N 4.00000 9.00000 8.00000 Uiso 1.00
A4_10 N 4.00000 9.00000 9.00000 Uiso 1.00
A4_10 N 4.00000 9.00000 10.00000 Uiso 1.00
A4_1 N 4.00000 10.00000 10.00000 Uiso 1.00
A4_2 N 4.00000 10.00000 1.00000 Uiso 1.00
A4_3 N 4.00000 10.00000 2.00000 Uiso 1.00
A4_4 N 4.00000 10.00000 3.00000 Uiso 1.00
A4_5 N 4.00000 10.00000 4.00000 Uiso 1.00
A4_6 N 4.00000 10.00000 5.00000 Uiso 1.00
A4_7 N 4.00000 10.00000 6.00000 Uiso 1.00
A4_8 N 4.00000 10.00000 7.00000 Uiso 1.00
A4_9 N 4.00000 10.00000 8.00000 Uiso 1.00
A4_10 N 4.00000 10.00000 9.00000 Uiso 1.00
A5 N 5.00000 10.00000 10.00000 Uiso 1.00
A5_1 N 5.00000 10.00000 10.00000 Uiso 1.00
A5_1 N 5.00000 1.00000 10.00000 Uiso 1.00
A5_2 N 5.00000 1.00000 1.00000 Uiso 1.00
A5_3 N 5.00000 1.00000 2.00000 Uiso 1.00
A5_4 N 5.00000 1.00000 3.00000 Uiso 1.00
A5_5 N 5.00000 1.00000 4.00000 Uiso 1.00
A5_6 N 5.00000 1.00000 5.00000 Uiso 1.00
A5_7 N 5.00000 1.00000 6.00000 Uiso 1.00
A5_8 N 5.00000 1.00000 7.00000 Uiso 1.00
A5_9 N 5.00000 1.00000 8.00000 Uiso 1.00
A5_10 N 5.00000 1.00000 9.00000 Uiso 1.00
A5_2 N 5.00000 1.00000 10.00000 Uiso 1.00
A5_1 N 5.00000 2.00000 10.00000 Uiso 1.00
A5_2 N 5.00000 2.00000 1.00000 Uiso 1.00
A5_3 N 5.00000 2.00000 2.00000 Uiso 1.00
A5_4 N 5.00000 2.00000 3.00000 Uiso 1.00
A5_5 N 5.00000 2.00000 4.00000 Uiso 1.00
A5_6 N 5.00000 2.00000 5.00000 Uiso 1.00
A5_7 N 5.00000 2.00000 6.00000 Uiso 1.00
A5_8 N 5.00000 2.00000 7.00000 Uiso 1.00
A5_9 N 5.00000 2.00000 8.00000 Uiso 1.00
A5_10 N 5.00000 2.00000 9.00000 Uiso 1.00
A5_3 N 5.00000 2.00000 10.00000 Uiso 1.00
A5_1 N 5.00000 3.00000 10.00000 Uiso 1.00
A5_2 N 5.00000 3.00000 1.00000 Uiso 1.00
A5_3 N 5.00000 3.00000 2.00000 Uiso 1.00
A5_4 N 5.00000 3.00000 3.00000 Uiso 1.00
A5_5 N 5.00000 3.00000 4.00000 Uiso 1.00
A5_6 N 5.00000 3.00000 5.00000 Uiso 1.00
A5_7 N 5.00000 3.00000 6.00000 Uiso 1.00
A5_8 N 5.00000 3.00000 7.00000 Uiso 1.00
A5_9 N 5.00000 3.00000 8.00000 Uiso 1.00
A5_10 N 5.00000 3.00000 9.00000 Uiso 1.00
A5_4 N 5.00000 3.00000 10.00000 Uiso 1.00
A5_1 N 5.00000 4.00000 10.00000 Uiso 1.00
A5_2 N 5.00000 4.00000 1.00000 Uiso 1.00
A5_3 N 5.00000 4.00000 2.00000 Uiso 1.00
A5_4 N 5.00000 4.00000 3.00000 Uiso 1.00
A5_5 N 5.00000 4.00000 4.00000 Uiso 1.00
A5_6 N 5.00000 4.00000 5.00000 Uiso 1.00
A5_7 N 5.00000 4.00000 6.00000 Uiso 1.00
A5_8 N 5.00000 4.00000 7.00000 Uiso 1.00
A5_9 N 5.00000 4.00000 8.00000 Uiso 1.00
A5_10 N 5.00000 4.00000 9.00000 Uiso 1.00
A5_5 N 5.00000 4.00000 10.00000 Uiso 1.00
A5_1 N 5.00000 5.00000 10.00000 Uiso 1.00
A5_2 N 5.00000 5.00000 1.00000 Uiso 1.00
A5_3 N 5.00000 5.00000 2.00000 Uiso 1.00
A5_4 N 5.00000 5.00000 3.00000 Uiso 1.00
A5_5 N 5.00000 5.00000 4.00000 Uiso 1.00
A5_6 N 5.00000 5.00000 5.00000 Uiso 1.00
A5_7 N 5.00000 5.00000 6.00000 Uiso 1.00
A5_8 N 5.00000 5.00000 7.00000 Uiso 1.00
A5_9 N 5.00000 5.00000 8.00000 Uiso 1.00
A5_10 N 5.00000 5.00000 9.00000 Uiso 1.00
A5_6 N 5.00000 5.00000 10.00000 Uiso 1.00
A5_1 N 5.00000 6.00000 10.00000 Uiso 1.00
A5_2 N 5.00000 6.00000 1.00000 Uiso 1.00
A5_3 N 5.00000 6.00000 2.00000 Uiso 1.00
A5_4 N 5.00000 6.00000 3.00000 Uiso 1.00
A5_5 N 5.00000 6.00000 4.00000 Uiso 1.00
A5_6 N 5.00000 6.00000 5.00000 Uiso 1.00
A5_7 N 5.00000 6.00000 6.00000 Uiso 1.00
A5_8 N 5.00000 6.00000 7.00000 Uiso 1.00
A5_9 N 5.00000 6.00000 8.00000 Uiso 1.00
A5_10 N 5.00000 6.00000 9.00000 Uiso 1.00
A5_7 N 5.00000 6.00000 10.00000 Uiso 1.00
A5_1 N 5.00000 7.00000 10.00000 Uiso 1.00
A5_2 N 5.00000 7.00000 1.00000 Uiso 1.00
A5_3 N 5.00000 7.00000 2.00000 Uiso 1.00
A5_4 N 5.00000 7.00000 3.00000 Uiso 1.00
A5_5 N 5.00000 7.00000 4.00000 Uiso 1.00
A5_6 N 5.00000 7.00000 5.00000 Uiso 1.00
A5_7 N 5.00000 7.00000 6.00000 Uiso 1.00
A5_8 N 5.00000 7.00000 7.00000 Uiso 1.00
A5_9 N 5.00000 7.00000 8.00000 Uiso 1.00
A5_10 N 5.00000 7.00000 9.00000 Uiso 1.00
A5_8 N 5.00000 7.00000 10.00000 Uiso 1.00
A5_1 N 5.00000 8.00000 10.00000 Uiso 1.00
A5_2 N 5.00000 8.00000 1.00000 Uiso 1.00
A5_3 N 5.00000 8.00000 2.00000 Uiso 1.00
A5_4 N 5.00000 8.00000 3.00000 Uiso 1.00
A5_5 N 5.00000 8.00000 4.00000 Uiso 1.00
A5_6 N 5.00000 8.00000 5.00000 Uiso 1.00
A5_7 N 5.00000 8.00000 6.00000 Uiso 1.00
A5_8 N 5.00000 8.00000 7.00000 Uiso 1.00
A5_9 N 5.00000 8.00000 8.00000 Uiso 1.00
A5_10 N 5.00000 8.00000 9.00000 Uiso 1.00
A5_9 N 5.00000 8.00000 10.00000 Uiso 1.00
A5_1 N 5.00000 9.00000 10.00000 Uiso 1.00
A5_2 N 5.00000 9.00000 1.00000 Uiso 1.00
A5_3 N 5.00000 9.00000 2.00000 Uiso 1.00
A5_4 N 5.00000 9.00000 3.00000 Uiso 1.00
A5_5 N 5.00000 9.00000 4.00000 Uiso 1.00
A5_6 N 5.00000 9.00000 5.00000 Uiso 1.00
A5_7 N 5.00000 9.00000 6.00000 Uiso 1.00
A5_8 N 5.00000 9.00000 7.00000 Uiso 1.00
A5_9 N 5.00000 9.00000 8.00000 Uiso 1.00
A5_10 N 5.00000 9.00000 9.00000 Uiso 1.00
A5_10 N 5.00000 9.00000 10.00000 Uiso 1.00
A5_1 N 5.00000 10.00000 10.00000 Uiso 1.00
A5_2 N 5.00000 10.00000 1.00000 Uiso 1.00
A5_3 N 5.00000 10.00000 2.00000 Uiso 1.00
A5_4 N 5.00000 10.00000 3.00000 Uiso 1.00
A5_5 N 5.00000 10.00000 4.00000 Uiso 1.00
A5_6 N 5.00000 10.00000 5.00000 Uiso 1.00
A5_7 N 5.00000 10.00000 6.00000 Uiso 1.00
A5_8 N 5.00000 10.00000 7.00000 Uiso 1.00
A5_9 N 5.00000 10.00000 8.00000 Uiso 1.00
A5_10 N 5.00000 10.00000 9.00000 Uiso 1.00
A6 N 6.00000 10.00000 10.00000 Uiso 1.00
A6_1 N 6.00000 10.00000 10.00000 Uiso 1.00
A6_1 N 6.00000 1.00000 10.00000 Uiso 1.00
A6_2 N 6.00000 1.00000 1.00000 Uiso 1.00
A6_3 N 6.00000 1.00000 2.00000 Uiso 1.00
A6_4 N 6.00000 1.00000 3.00000 Uiso 1.00
A6_5 N 6.00000 1.00000 4.00000 Uiso 1.00
A6_6 N 6.00000 1.00000 5.00000 Uiso 1.00
A6_7 N 6.00000 1.00000 6.00000 Uiso 1.00
A6_8 N 6.00000 1.00000 7.00000 Uiso 1.00
A6_9 N 6.00000 1.00000 8.00000 Uiso 1.00
A6_10 N 6.00000 1.00000 9.00000 Uiso 1.00
A6_2 N 6.00000 1.00000 10.00000 Uiso 1.00
A6_1 N 6.00000 2.00000 10.00000 Uiso 1.00
A6_2 N 6.00000 2.00000 1.00000 Uiso 1.00
A6_3 N 6.00000 2.00000 2.00000 Uiso 1.00
A6_4 N 6.00000 2.00000 3.00000 Uiso 1.00
A6_5 N 6.00000 2.00000 4.00000 Uiso 1.00
A6_6 N 6.00000 2.00000 5.00000 Uiso 1.00
A6_7 N 6.00000 2.00000 6.00000 Uiso 1.00
A6_8 N 6.00000 2.00000 7.00000 Uiso 1.00
A6_9 N 6.00000 2.00000 8.00000 Uiso 1.00
A6_10 N 6.00000 2.00000 9.00000 Uiso 1.00
A6_3 N 6.00000 2.00000 10.00000 Uiso 1.00
A6_1 N 6.00000 3.00000 10.00000 Uiso 1.00
A6_2 N 6.00000 3.00000 1.00000 Uiso 1.00
A6_3 N 6.00000 3.00000 2.00000 Uiso 1.00
A6_4 N 6.00000 3.00000 3.00000 Uiso 1.00
A6_5 N 6.00000 3.00000 4.00000 Uiso 1.00
A6_6 N 6.00000 3.00000 5.00000 Uiso 1.00
A6_7 N 6.00000 3.00000 6.00000 Uiso 1.00
A6_8 N 6.00000 3.00000 7.00000 Uiso 1.00
A6_9 N 6.00000 3.00000 8.00000 Uiso 1.00
A6_10 N 6.00000 3.00000 9.00000 Uiso 1.00
A6_4 N 6.00000 3.00000 10.00000 Uiso 1.00
A6_1 N 6.00000 4.00000 10.00000 Uiso 1.00
A6_2 N 6.00000 4.00000 1.00000 Uiso 1.00
A6_3 N 6.00000 4.00000 2.00000 Uiso 1.00
A6_4 N 6.00000 4.00000 3.00000 Uiso 1.00
A6_5 N 6.00000 4.00000 4.00000 Uiso 1.00
A6_6 N 6.00000 4.00000 5.00000 Uiso 1.00
A6_7 N 6.00000 4.00000 6.00000 Uiso 1.00
A6_8 N 6.00000 4.00000 7.00000 Uiso 1.00
A6_9 N 6.00000 4.00000 8.00000 Uiso 1.00
A6_10 N 6.00000 4.00000 9.00000 Uiso 1.00
A6_5 N 6.00000 4.00000 10.00000 Uiso 1.00
A6_1 N 6.00000 5.00000 10.00000 Uiso 1.00
A6_2 N 6.00000 5.00000 1.00000 Uiso 1.00
A6_3 N 6.00000 5.00000 2.00000 Uiso 1.00
A6_4 N 6.00000 5.00000 3.00000 Uiso 1.00
A6_5 N 6.00000 5.00000 4.00000 Uiso 1.00
A6_6 N 6.00000 5.00000 5.00000 Uiso 1.00
A6_7 N 6.00000 5.00000 6.00000 Uiso 1.00
A6_8 N 6.00000 5.00000 7.00000 Uiso 1.00
A6_9 N 6.00000 5.00000 8.00000 Uiso 1.00
A6_10 N 6.00000 5.00000 9.00000 Uiso 1.00
A6_6 N 6.00000 5.00000 10.00000 Uiso 1.00
A6_1 N 6.00000 6.00000 10.00000 Uiso 1.00
A6_2 N 6.00000 6.00000 1.00000 Uiso 1.00
A6_3 N 6.00000 6.00000 2.00000 Uiso 1.00
A6_4 N 6.00000 6.00000 3.00000 Uiso 1.00
A6_5 N 6.00000 6.00000 4.00000 Uiso 1.00
A6_6 N 6.00000 6.00000 5.00000 Uiso 1.00
A6_7 N 6.00000 6.00000 6.00000 Uiso 1.00
A6_8 N 6.00000 6.00000 7.00000 Uiso 1.00
A6_9 N 6.00000 6.00000 8.00000 Uiso 1.00
A6_10 N 6.00000 6.00000 9.00000 Uiso 1.00
A6_7 N 6.00000 6.00000 10.00000 Uiso 1.00
A6_1 N 6.00000 7.00000 10.00000 Uiso 1.00
A6_2 N 6.00000 7.00000 1.00000 Uiso 1.00
A6_3 N 6.00000 7.00000 2.00000 Uiso 1.00
A6_4 N 6.00000 7.00000 3.00000 Uiso 1.00
A6_5 N 6.00000 7.00000 4.00000 Uiso 1.00
A6_6 N 6.00000 7.00000 5.00000 Uiso 1.00
A6_7 N 6.00000 7.00000 6.00000 Uiso 1.00
A6_8 N 6.00000 7.00000 7.00000 Uiso 1.00
A6_9 N 6.00000 7.00000 8.00000 Uiso 1.00
A6_10 N 6.00000 7.00000 9.00000 Uiso 1.00
A6_8 N 6.00000 7.00000 10.00000 Uiso 1.00
A6_1 N 6.00000 8.00000 10.00000 Uiso 1.00
A6_2 N 6.00000 8.00000 1.00000 Uiso 1.00
A6_3 N 6.00000 8.00000 2.00000 Uiso 1.00
A6_4 N 6.00000 8.00000 3.00000 Uiso 1.00
A6_5 N 6.00000 8.00000 4.00000 Uiso 1.00
A6_6 N 6.00000 8.00000 5.00000 Uiso 1.00
A6_7 N 6.00000 8.00000 6.00000 Uiso 1.00
A6_8 N 6.00000 8.00000 7.00000 Uiso 1.00
A6_9 N 6.00000 8.00000 8.00000 Uiso 1.00
A6_10 N 6.00000 8.00000 9.00000 Uiso 1.00
A6_9 N 6.00000 8.00000 10.00000 Uiso 1.00
A6_1 N 6.00000 9.00000 10.00000 Uiso 1.00
A6_2 N 6.00000 9.00000 1.00000 Uiso 1.00
A6_3 N 6.00000 9.00000 2.00000 Uiso 1.00
A6_4 N 6.00000 9.00000 3.00000 Uiso 1.00
A6_5 N 6.00000 9.00000 4.00000 Uiso 1.00
A6_6 N 6.00000 9.00000 5.00000 Uiso 1.00
A6_7 N 6.00000 9.00000 6.00000 Uiso 1.00
A6_8 N 6.00000 9.00000 7.00000 Uiso 1.00
A6_9 N 6.00000 9.00000 8.00000 Uiso 1.00
A6_10 N 6.00000 9.00000 9.00000 Uiso 1.00
A6_10 N 6.00000 9.00000 10.00000 Uiso 1.00
A6_1 N 6.00000 10.00000 10.00000 Uiso 1.00
A6_2 N 6.00000 10.00000 1.00000 Uiso 1.00
A6_3 N 6.00000 10.00000 2.00000 Uiso 1.00
A6_4 N 6.00000 10.00000 3.00000 Uiso 1.00
A6_5 N 6.00000 10.00000 4.00000 Uiso 1.00
A6_6 N 6.00000 10.00000 5.00000 Uiso 1.00
A6_7 N 6.00000 10.00000 6.00000 Uiso 1.00
A6_8 N 6.00000 10.00000 7.00000 Uiso 1.00
A6_9 N 6.00000 10.00000 8.00000 Uiso 1.00
A6_10 N 6.00000 10.00000 9.00000 Uiso 1.00
A7 N 7.00000 10.00000 10.00000 Uiso 1.00
A7_1 N 7.00000 10.00000 10.00000 Uiso 1.00
A7_1 N 7.00000 1.00000 10.00000 Uiso 1.00
A7_2 N 7.00000 1.00000 1.00000 Uiso 1.00
A7_3 N 7.00000 1.00000 2.00000 Uiso 1.00
A7_4 N 7.00000 1.00000 3.00000 Uiso 1.00
A7_5 N 7.00000 1.00000 4.00000 Uiso 1.00
A7_6 N 7.00000 1.00000 5.00000 Uiso 1.00
A7_7 N 7.00000 1.00000 6.00000 Uiso 1.00
A7_8 N 7.00000 1.00000 7.00000 Uiso 1.00
A7_9 N 7.00000 1.00000 8.00000 Uiso 1.00
A7_10 N 7.00000 1.00000 9.00000 Uiso 1.00
A7_2 N 7.00000 1.00000 10.00000 Uiso 1.00
A7_1 N 7.00000 2.00000 10.00000 Uiso 1.00
A7_2 N 7.00000 2.00000 1.00000 Uiso 1.00
A7_3 N 7.00000 2.00000 2.00000 Uiso 1.00
A7_4 N 7.00000 2.00000 3.00000 Uiso 1.00
A7_5 N 7.00000 2.00000 4.00000 Uiso 1.00
A7_6 N 7.00000 2.00000 5.00000 Uiso 1.00
A7_7 N 7.00000 2.00000 6.00000 Uiso 1.00
A7_8 N 7.00000 2.00000 7.00000 Uiso 1.00
A7_9 N 7.00000 2.00000 8.00000 Uiso 1.00
A7_10 N 7.00000 2.00000 9.00000 Uiso 1.00
A7_3 N 7.00000 2.00000 10.00000 Uiso 1.00
A7_1 N 7.00000 3.00000 10.00000 Uiso 1.00
A7_2 N 7.00000 3.00000 1.00000 Uiso 1.00
A7_3 N 7.00000 3.00000 2.00000 Uiso 1.00
A7_4 N 7.00000 3.00000 3.00000 Uiso 1.00
A7_5 N 7.00000 3.00000 4.00000 Uiso 1.00
A7_6 N 7.00000 3.00000 5.00000 Uiso 1.00
A7_7 N 7.00000 3.00000 6.00000 Uiso 1.00
A7_8 N 7.00000 3.00000 7.00000 Uiso 1.00
A7_9 N 7.00000 3.00000 8.00000 Uiso 1.00
A7_10 N 7.00000 3.00000 9.00000 Uiso 1.00
A7_4 N 7.00000 3.00000 10.00000 Uiso 1.00
A7_1 N 7.00000 4.00000 10.00000 Uiso 1.00
A7_2 N 7.00000 4.00000 1.00000 Uiso 1.00
A7_3 N 7.00000 4.00000 2.00000 Uiso 1.00
A7_4 N 7.00000 4.00000 3.00000 Uiso 1.00
A7_5 N 7.00000 4.00000 4.00000 Uiso 1.00
A7_6 N 7.00000 4.00000 5.00000 Uiso 1.00
A7_7 N 7.00000 4.00000 6.00000 Uiso 1.00
A7_8 N 7.00000 4.00000 7.00000 Uiso 1.00
A7_9 N 7.00000 4.00000 8.00000 Uiso 1.00
A7_10 N 7.00000 4.00000 9.00000 Uiso 1.00
A7_5 N 7.00000 4.00000 10.00000 Uiso 1.00
A7_1 N 7.00000 5.00000 10.00000 Uiso 1.00
A7_2 N 7.00000 5.00000 1.00000 Uiso 1.00
A7_3 N 7.00000 5.00000 2.00000 Uiso 1.00
A7_4 N 7.00000 5.00000 3.00000 Uiso 1.00
A7_5 N 7.00000 5.00000 4.00000 Uiso 1.00
A7_6 N 7.00000 5.00000 5.00000 Uiso 1.00
A7_7 N 7.00000 5.00000 6.00000 Uiso 1.00
A7_8 N 7.00000 5.00000 7.00000 Uiso 1.00
A7_9 N 7.00000 5.00000 8.00000 Uiso 1.00
A7_10 N 7.00000 5.00000 9.00000 Uiso 1.00
A7_6 N 7.00000 5.00000 10.00000 Uiso 1.00
A7_1 N 7.00000 6.00000 10.00000 Uiso 1.00
A7_2 N 7.00000 6.00000 1.00000 Uiso 1.00
A7_3 N 7.00000 6.00000 2.00000 Uiso 1.00
A7_4 N 7.00000 6.00000 3.00000 Uiso 1.00
A7_5 N 7.00000 6.00000 4.00000 Uiso 1.00
A7_6 N 7.00000 6.00000 5.00000 Uiso 1.00
A7_7 N 7.00000 6.00000 6.00000 Uiso 1.00
A7_8 N 7.00000 6.00000 7.00000 Uiso 1.00
A7_9 N 7.00000 6.00000 8.00000 Uiso 1.00
A7_10 N 7.00000 6.00000 9.00000 Uiso 1.00
A7_7 N 7.00000 6.00000 10.00000 Uiso 1.00
A7_1 N 7.00000 7.00000 10.00000 Uiso 1.00
A7_2 N 7.00000 7.00000 1.00000 Uiso 1.00
A7_3 N 7.00000 7.00000 2.00000 Uiso 1.00
A7_4 N 7.00000 7.00000 3.00000 Uiso 1.00
A7_5 N 7.00000 7.00000 4.00000 Uiso 1.00
A7_6 N 7.00000 7.00000 5.00000 Uiso 1.00
A7_7 N 7.00000 7.00000 6.00000 Uiso 1.00
A7_8 N 7.00000 7.00000 7.00000 Uiso 1.00
A7_9 N 7.00000 7.00000 8.00000 Uiso 1.00
A7_10 N 7.00000 7.00000 9.00000 Uiso 1.00
A7_8 N 7.00000 7.00000 10.00000 Uiso 1.00
A7_1 N 7.00000 8.00000 10.00000 Uiso 1.00
A7_2 N 7.00000 8.00000 1.00000 Uiso 1.00
A7_3 N 7.00000 8.00000 2.00000 Uiso 1.00
A7_4 N 7.00000 8.00000 3.00000 Uiso 1.00
A7_5 N 7.00000 8.00000 4.00000 Uiso 1.00
A7_6 N 7.00000 8.00000 5.00000 Uiso 1.00
A7_7 N 7.00000 8.00000 6.00000 Uiso 1.00
A7_8 N 7.00000 8.00000 7.00000 Uiso 1.00
A7_9 N 7.00000 8.00000 8.00000 Uiso 1.00
A7_10 N 7.00000 8.00000 9.00000 Uiso 1.00
A7_9 N 7.00000 8.00000 10.00000 Uiso 1.00
A7_1 N 7.00000 9.00000 10.00000 Uiso 1.00
A7_2 N 7.00000 9.00000 1.00000 Uiso 1.00
A7_3 N 7.00000 9.00000 2.00000 Uiso 1.00
A7_4 N 7.00000 9.00000 3.00000 Uiso 1.00
A7_5 N 7.00000 9.00000 4.00000 Uiso 1.00
A7_6 N 7.00000 9.00000 5.00000 Uiso 1.00
A7_7 N 7.00000 9.00000 6.00000 Uiso 1.00
A7_8 N 7.00000 9.00000 7.00000 Uiso 1.00
A7_9 N 7.00000 9.00000 8.00000 Uiso 1.00
A7_10 N 7.00000 9.00000 9.00000 Uiso 1.00
A7_10 N 7.00000 9.00000 10.00000 Uiso 1.00
A7_1 N 7.00000 10.00000 10.00000 Uiso 1.00
A7_2 N 7.00000 10.00000 1.00000 Uiso 1.00
A7_3 N 7.00000 10.00000 2.00000 Uiso 1.00
A7_4 N 7.00000 10.00000 3.00000 Uiso 1.00
A7_5 N 7.00000 10.00000 4.00000 Uiso 1.00
A7_6 N 7.00000 10.00000 5.00000 Uiso 1.00
A7_7 N 7.00000 10.00000 6.00000 Uiso 1.00
A7_8 N 7.00000 10.00000 7.00000 Uiso 1.00
A7_9 N 7.00000 10.00000 8.00000 Uiso 1.00
A7_10 N 7.00000 10.00000 9.00000 Uiso 1.00
A8 N 8.00000 10.00000 10.00000 Uiso 1.00
A8_1 N 8.00000 10.00000 10.00000 Uiso 1.00
A8_1 N 8.00000 1.00000 10.00000 Uiso 1.00
A8_2 N 8.00000 1.00000 1.00000 Uiso 1.00
A8_3 N 8.00000 1.00000 2.00000 Uiso 1.00
A8_4 N 8.00000 1.00000 3.00000 Uiso 1.00
A8_5 N 8.00000 1.00000 4.00000 Uiso 1.00
A8_6 N 8.00000 1.00000 5.00000 Uiso 1.00
A8_7 N 8.00000 1.00000 6.00000 Uiso 1.00
A8_8 N 8.00000 1.00000 7.00000 Uiso 1.00
A8_9 N 8.00000 1.00000 8.00000 Uiso 1.00
A8_10 N 8.00000 1.00000 9.00000 Uiso 1.00
A8_2 N 8.00000 1.00000 10.00000 Uiso 1.00
A8_1 N 8.00000 2.00000 10.00000 Uiso 1.00
A8_2 N 8.00000 2.00000 1.00000 Uiso 1.00
A8_3 N 8.00000 2.00000 2.00000 Uiso 1.00
A8_4 N 8.00000 2.00000 3.00000 Uiso 1.00
A8_5 N 8.00000 2.00000 4.00000 Uiso 1.00
A8_6 N 8.00000 2.00000 5.00000 Uiso 1.00
A8_7 N 8.00000 2.00000 6.00000 Uiso 1.00
A8_8 N 8.00000 2.00000 7.00000 Uiso 1.00
A8_9 N 8.00000 2.00000 8.00000 Uiso 1.00
A8_10 N 8.00000 2.00000 9.00000 Uiso 1.00
A8_3 N 8.00000 2.00000 10.00000 Uiso 1.00
A8_1 N 8.00000 3.00000 10.00000 Uiso 1.00
A8_2 N 8.00000 3.00000 1.00000 Uiso 1.00
A8_3 N 8.00000 3.00000 2.00000 Uiso 1.00
A8_4 N 8.00000 3.00000 3.00000 Uiso 1.00
A8_5 N 8.00000 3.00000 4.00000 Uiso 1.00
A8_6 N 8.00000 3.00000 5.00000 Uiso 1.00
A8_7 N 8.00000 3.00000 6.00000 Uiso 1.00
A8_8 N 8.00000 3.00000 7.00000 Uiso 1.00
A8_9 N 8.00000 3.00000 8.00000 Uiso 1.00
A8_10 N 8.00000 3.00000 9.00000 Uiso 1.00
A8_4 N 8.00000 3.00000 10.00000 Uiso 1.00
A8_1 N 8.00000 4.00000 10.00000 Uiso 1.00
A8_2 N 8.00000 4.00000 1.00000 Uiso 1.00
A8_3 N 8.00000 4.00000 2.00000 Uiso 1.00
A8_4 N 8.00000 4.00000 3.00000 Uiso 1.00
A8_5 N 8.00000 4.00000 4.00000 Uiso 1.00
A8_6 N 8.00000 4.00000 5.00000 Uiso 1.00
A8_7 N 8.00000 4.00000 6.00000 Uiso 1.00
A8_8 N 8.00000 4.00000 7.00000 Uiso 1.00
A8_9 N 8.00000 4.00000 8.00000 Uiso 1.00
A8_10 N 8.00000 4.00000 9.00000 Uiso 1.00
A8_5 N 8.00000 4.00000 10.00000 Uiso 1.00
A8_1 N 8.00000 5.00000 10.00000 Uiso 1.00
A8_2 N 8.00000 5.00000 1.00000 Uiso 1.00
A8_3 N 8.00000 5.00000 2.00000 Uiso 1.00
A8_4 N 8.00000 5.00000 3.00000 Uiso 1.00
A8_5 N 8.00000 5.00000 4.00000 Uiso 1.00
A8_6 N 8.00000 5.00000 5.00000 Uiso 1.00
A8_7 N 8.00000 5.00000 6.00000 Uiso 1.00
A8_8 N 8.00000 5.00000 7.00000 Uiso 1.00
A8_9 N 8.00000 5.00000 8.00000 Uiso 1.00
A8_10 N 8.00000 5.00000 9.00000 Uiso 1.00
A8_6 N 8.00000 5.00000 10.00000 Uiso 1.00
A8_1 N 8.00000 6.00000 10.00000 Uiso 1.00
A8_2 N 8.00000 6.00000 1.00000 Uiso 1.00
A8_3 N 8.00000 6.00000 2.00000 Uiso 1.00
A8_4 N 8.00000 6.00000 3.00000 Uiso 1.00
A8_5 N 8.00000 6.00000 4.00000 Uiso 1.00
A8_6 N 8.00000 6.00000 5.00000 Uiso 1.00
A8_7 N 8.00000 6.00000 6.00000 Uiso 1.00
A8_8 N 8.00000 6.00000 7.00000 Uiso 1.00
A8_9 N 8.00000 6.00000 8.00000 Uiso 1.00
A8_10 N 8.00000 6.00000 9.00000 Uiso 1.00
A8_7 N 8.00000 6.00000 10.00000 Uiso 1.00
A8_1 N 8.00000 7.00000 10.00000 Uiso 1.00
A8_2 N 8.00000 7.00000 1.00000 Uiso 1.00
A8_3 N 8.00000 7.00000 2.00000 Uiso 1.00
A8_4 N 8.00000 7.00000 3.00000 Uiso 1.00
A8_5 N 8.00000 7.00000 4.00000 Uiso 1.00
A8_6 N 8.00000 7.00000 5.00000 Uiso 1.00
A8_7 N 8.00000 7.00000 6.00000 Uiso 1.00
A8_8 N 8.00000 7.00000 7.00000 Uiso 1.00
A8_9 N 8.00000 7.00000 8.00000 Uiso 1.00
A8_10 N 8.00000 7.00000 9.00000 Uiso 1.00
A8_8 N 8.00000 7.00000 10.00000 Uiso 1.00
A8_1 N 8.00000 8.00000 10.00000 Uiso 1.00
A8_2 N 8.00000 8.00000 1.00000 Uiso 1.00
A8_3 N 8.00000 8.00000 2.00000 Uiso 1.00
A8_4 N 8.00000 8.00000 3.00000 Uiso 1.00
A8_5 N 8.00000 8.00000 4.00000 Uiso 1.00
A8_6 N 8.00000 8.00000 5.00000 Uiso 1.00
A8_7 N 8.00000 8.00000 6.00000 Uiso 1.00
A8_8 N 8.00000 8.00000 7.00000 Uiso 1.00
A8_9 N 8.00000 8.00000 8.00000 Uiso 1.00
A8_10 N 8.00000 8.00000 9.00000 Uiso 1.00
A8_9 N 8.00000 8.00000 10.00000 Uiso 1.00
A8_1 N 8.00000 9.00000 10.00000 Uiso 1.00
A8_2 N 8.00000 9.00000 1.00000 Uiso 1.00
A8_3 N 8.00000 9.00000 2.00000 Uiso 1.00
A8_4 N 8.00000 9.00000 3.00000 Uiso 1.00
A8_5 N 8.00000 9.00000 4.00000 Uiso 1.00
A8_6 N 8.00000 9.00000 5.00000 Uiso 1.00
A8_7 N 8.00000 9.00000 6.00000 Uiso 1.00
A8_8 N 8.00000 9.00000 7.00000 Uiso 1.00
A8_9 N 8.00000 9.00000 8.00000 Uiso 1.00
A8_10 N 8.00000 9.00000 9.00000 Uiso 1.00
A8_10 N 8.00000 9.00000 10.00000 Uiso 1.00
A8_1 N 8.00000 10.00000 10.00000 Uiso 1.00
A8_2 N 8.00000 10.00000 1.00000 Uiso 1.00
A8_3 N 8.00000 10.00000 2.00000 Uiso 1.00
A8_4 N 8.00000 10.00000 3.00000 Uiso 1.00
A8_5 N 8.00000 10.00000 4.00000 Uiso 1.00
A8_6 N 8.00000 10.00000 5.00000 Uiso 1.00
A8_7 N 8.00000 10.00000 6.00000 Uiso 1.00
A8_8 N 8.00000 10.00000 7.00000 Uiso 1.00
A8_9 N 8.00000 10.00000 8.00000 Uiso 1.00
A8_10 N 8.00000 10.00000 9.00000 Uiso 1.00
A9 N 9.00000 10.00000 10.00000 Uiso 1.00
A9_1 N 9.00000 10.00000 10.00000 Uiso 1.00
A9_1 N 9.00000 1.00000 10.00000 Uiso 1.00
A9_2 N 9.00000 1.00000 1.00000 Uiso 1.00
A9_3 N 9.00000 1.00000 2.00000 Uiso 1.00
A9_4 N 9.00000 1.00000 3.00000 Uiso 1.00
A9_5 N 9.00000 1.00000 4.00000 Uiso 1.00
A9_6 N 9.00000 1.00000 5.00000 Uiso 1.00
A9_7 N 9.00000 1.00000 6.00000 Uiso 1.00
A9_8 N 9.00000 1.00000 7.00000 Uiso 1.00
A9_9 N 9.00000 1.00000 8.00000 Uiso 1.00
A9_10 N 9.00000 1.00000 9.00000 Uiso 1.00
A9_2 N 9.00000 1.00000 10.00000 Uiso 1.00
A9_1 N 9.00000 2.00000 10.00000 Uiso 1.00
A9_2 N 9.00000 2.00000 1.00000 Uiso 1.00
A9_3 N 9.00000 2.00000 2.00000 Uiso 1.00
A9_4 N 9.00000 2.00000 3.00000 Uiso 1.00
A9_5 N 9.00000 2.00000 4.00000 Uiso 1.00
A9_6 N 9.00000 2.00000 5.00000 Uiso 1.00
A9_7 N 9.00000 2.00000 6.00000 Uiso 1.00
A9_8 N 9.00000 2.00000 7.00000 Uiso 1.00
A9_9 N 9.00000 2.00000 8.00000 Uiso 1.00
A9_10 N 9.00000 2.00000 9.00000 Uiso 1.00
A9_3 N 9.00000 2.00000 10.00000 Uiso 1.00
A9_1 N 9.00000 3.00000 10.00000 Uiso 1.00
A9_2 N 9.00000 3.00000 1.00000 Uiso 1.00
A9_3 N 9.00000 3.00000 2.00000 Uiso 1.00
A9_4 N 9.00000 3.00000 3.00000 Uiso 1.00
A9_5 N 9.00000 3.00000 4.00000 Uiso 1.00
A9_6 N 9.00000 3.00000 5.00000 Uiso 1.00
A9_7 N 9.00000 3.00000 6.00000 Uiso 1.00
A9_8 N 9.00000 3.00000 7.00000 Uiso 1.00
A9_9 N 9.00000 3.00000 8.00000 Uiso 1.00
A9_10 N 9.00000 3.00000 9.00000 Uiso 1.00
A9_4 N 9.00000 3.00000 10.00000 Uiso 1.00
A9_1 N 9.00000 4.00000 10.00000 Uiso 1.00
A9_2 N 9.00000 4.00000 1.00000 Uiso 1.00
A9_3 N 9.00000 4.00000 2.00000 Uiso 1.00
A9_4 N 9.00000 4.00000 3.00000 Uiso 1.00
A9_5 N 9.00000 4.00000 4.00000 Uiso 1.00
A9_6 N 9.00000 4.00000 5.00000 Uiso 1.00
A9_7 N 9.00000 4.00000 6.00000 Uiso 1.00
A9_8 N 9.00000 4.00000 7.00000 Uiso 1.00
A9_9 N 9.00000 4.00000 8.00000 Uiso 1.00
A9_10 N 9.00000 4.00000 9.00000 Uiso 1.00
A9_5 N 9.00000 4.00000 10.00000 Uiso 1.00
A9_1 N 9.00000 5.00000 10.00000 Uiso 1.00
A9_2 N 9.00000 5.00000 1.00000 Uiso 1.00
A9_3 N 9.00000 5.00000 2.00000 Uiso 1.00
A9_4 N 9.00000 5.00000 3.00000 Uiso 1.00
A9_5 N 9.00000 5.00000 4.00000 Uiso 1.00
A9_6 N 9.00000 5.00000 5.00000 Uiso 1.00
A9_7 N 9.00000 5.00000 6.00000 Uiso 1.00
A9_8 N 9.00000 5.00000 7.00000 Uiso 1.00
A9_9 N 9.00000 5.00000 8.00000 Uiso 1.00
A9_10 N 9.00000 5.00000 9.00000 Uiso 1.00
A9_6 N 9.00000 5.00000 10.00000 Uiso 1.00
A9_1 N 9.00000 6.00000 10.00000 Uiso 1.00
A9_2 N 9.00000 6.00000 1.00000 Uiso 1.00
A9_3 N 9.00000 6.00000 2.00000 Uiso 1.00
A9_4 N 9.00000 6.00000 3.00000 Uiso 1.00
A9_5 N 9.00000 6.00000 4.00000 Uiso 1.00
A9_6 N 9.00000 6.00000 5.00000 Uiso 1.00
A9_7 N 9.00000 6.00000 6.00000 Uiso 1.00
A9_8 N 9.00000 6.00000 7.00000 Uiso 1.00
A9_9 N 9.00000 6.00000 8.00000 Uiso 1.00
A9_10 N 9.00000 6.00000 9.00000 Uiso 1.00
A9_7 N 9.00000 6.00000 10.00000 Uiso 1.00
A9_1 N 9.00000 7.00000 10.00000 Uiso 1.00
A9_2 N 9.00000 7.00000 1.00000 Uiso 1.00
A9_3 N 9.00000 7.00000 2.00000 Uiso 1.00
A9_4 N 9.00000 7.00000 3.00000 Uiso 1.00
A9_5 N 9.00000 7.00000 4.00000 Uiso 1.00
A9_6 N 9.00000 7.00000 5.00000 Uiso 1.00
A9_7 N 9.00000 7.00000 6.00000 Uiso 1.00
A9_8 N 9.00000 7.00000 7.00000 Uiso 1.00
A9_9 N 9.00000 7.00000 8.00000 Uiso 1.00
A9_10 N 9.00000 7.00000 9.00000 Uiso 1.00
A9_8 N 9.00000 7.00000 10.00000 Uiso 1.00
A9_1 N 9.00000 8.00000 10.00000 Uiso 1.00
A9_2 N 9.00000 8.00000 1.00000 Uiso 1.00
A9_3 N 9.00000 8.00000 2.00000 Uiso 1.00
A9_4 N 9.00000 8.00000 3.00000 Uiso 1.00
A9_5 N 9.00000 8.00000 4.00000 Uiso 1.00
A9_6 N 9.00000 8.00000 5.00000 Uiso 1.00
A9_7 N 9.00000 8.00000 6.00000 Uiso 1.00
A9_8 N 9.00000 8.00000 7.00000 Uiso 1.00
A9_9 N 9.00000 8.00000 8.00000 Uiso 1.00
A9_10 N 9.00000 8.00000 9.00000 Uiso 1.00
A9_9 N 9.00000 8.00000 10.00000 Uiso 1.00
A9_1 N 9.00000 9.00000 10.00000 Uiso 1.00
A9_2 N 9.00000 9.00000 1.00000 Uiso 1.00
A9_3 N 9.00000 9.00000 2.00000 Uiso 1.00
A9_4 N 9.00000 9.00000 3.00000 Uiso 1.00
A9_5 N 9.00000 9.00000 4.00000 Uiso 1.00
A9_6 N 9.00000 9.00000 5.00000 Uiso 1.00
A9_7 N 9.00000 9.00000 6.00000 Uiso 1.00
A9_8 N 9.00000 9.00000 7.00000 Uiso 1.00
A9_9 N 9.00000 9.00000 8.00000 Uiso 1.00
A9_10 N 9.00000 9.00000 9.00000 Uiso 1.00
A9_10 N 9.00000 9.00000 10.00000 Uiso 1.00
A9_1 N 9.00000 10.00000 10.00000 Uiso 1.00
A9_2 N 9.00000 10.00000 1.00000 Uiso 1.00
A9_3 N 9.00000 10.00000 2.00000 Uiso 1.00
A9_4 N 9.00000 10.00000 3.00000 Uiso 1.00
A9_5 N 9.00000 10.00000 4.00000 Uiso 1.00
A9_6 N 9.00000 10.00000 5.00000 Uiso 1.00
A9_7 N 9.00000 10.00000 6.00000 Uiso 1.00
A9_8 N 9.00000 10.00000 7.00000 Uiso 1.00
A9_9 N 9.00000 10.00000 8.00000 Uiso 1.00
A9_10 N 9.00000 10.00000 9.00000 Uiso 1.00
A10 N 10.00000 10.00000 10.00000 Uiso 1.00
A10_1 N 10.00000 10.00000 10.00000 Uiso 1.00
A10_1 N 10.00000 1.00000 10.00000 Uiso 1.00
A10_2 N 10.00000 1.00000 1.00000 Uiso 1.00
A10_3 N 10.00000 1.00000 2.00000 Uiso 1.00
A10_4 N 10.00000 1.00000 3.00000 Uiso 1.00
A10_5 N 10.00000 1.00000 4.00000 Uiso 1.00
A10_6 N 10.00000 1.00000 5.00000 Uiso 1.00
A10_7 N 10.00000 1.00000 6.00000 Uiso 1.00
A10_8 N 10.00000 1.00000 7.00000 Uiso 1.00
A10_9 N 10.00000 1.00000 8.00000 Uiso 1.00
A10_10 N 10.00000 1.00000 9.00000 Uiso 1.00
A10_2 N 10.00000 1.00000 10.00000 Uiso 1.00
A10_1 N 10.00000 2.00000 10.00000 Uiso 1.00
A10_2 N 10.00000 2.00000 1.00000 Uiso 1.00
A10_3 N 10.00000 2.00000 2.00000 Uiso 1.00
A10_4 N 10.00000 2.00000 3.00000 Uiso 1.00
A10_5 N 10.00000 2.00000 4.00000 Uiso 1.00
A10_6 N 10.00000 2.00000 5.00000 Uiso 1.00
A10_7 N 10.00000 2.00000 6.00000 Uiso 1.00
A10_8 N 10.00000 2.00000 7.00000 Uiso 1.00
A10_9 N 10.00000 2.00000 8.00000 Uiso 1.00
A10_10 N 10.00000 2.00000 9.00000 Uiso 1.00
A10_3 N 10.00000 2.00000 10.00000 Uiso 1.00
A10_1 N 10.00000 3.00000 10.00000 Uiso 1.00
A10_2 N 10.00000 3.00000 1.00000 Uiso 1.00
A10_3 N 10.00000 3.00000 2.00000 Uiso 1.00
A10_4 N 10.00000 3.00000 3.00000 Uiso 1.00
A10_5 N 10.00000 3.00000 4.00000 Uiso 1.00
A10_6 N 10.00000 3.00000 5.00000 Uiso 1.00
A10_7 N 10.00000 3.00000 6.00000 Uiso 1.00
A10_8 N 10.00000 3.00000 7.00000 Uiso 1.00
A10_9 N 10.00000 3.00000 8.00000 Uiso 1.00
A10_10 N 10.00000 3.00000 9.00000 Uiso 1.00
A10_4 N 10.00000 3.00000 10.00000 Uiso 1.00
A10_1 N 10.00000 4.00000 10.00000 Uiso 1.00
A10_2 N 10.00000 4.00000 1.00000 Uiso 1.00
A10_3 N 10.00000 4.00000 2.00000 Uiso 1.00
A10_4 N 10.00000 4.00000 3.00000 Uiso 1.00
A10_5 N 10.00000 4.00000 4.00000 Uiso 1.00
A10_6 N 10.00000 4.00000 5.00000 Uiso 1.00
A10_7 N 10.00000 4.00000 6.00000 Uiso 1.00
A10_8 N 10.00000 4.00000 7.00000 Uiso 1.00
A10_9 N 10.00000 4.00000 8.00000 Uiso 1.00
A10_10 N 10.00000 4.00000 9.00000 Uiso 1.00
A10_5 N 10.00000 4.00000 10.00000 Uiso 1.00
A10_1 N 10.00000 5.00000 10.00000 Uiso 1.00
A10_2 N 10.00000 5.00000 1.00000 Uiso 1.00
A10_3 N 10.00000 5.00000 2.00000 Uiso 1.00
A10_4 N 10.00000 5.00000 3.00000 Uiso 1.00
A10_5 N 10.00000 5.00000 4.00000 Uiso 1.00
A10_6 N 10.00000 5.00000 5.00000 Uiso 1.00
A10_7 N 10.00000 5.00000 6.00000 Uiso 1.00
A10_8 N 10.00000 5.00000 7.00000 Uiso 1.00
A10_9 N 10.00000 5.00000 8.00000 Uiso 1.00
A10_10 N 10.00000 5.00000 9.00000 Uiso 1.00
A10_6 N 10.00000 5.00000 10.00000 Uiso 1.00
A10_1 N 10.00000 6.00000 10.00000 Uiso 1.00
A10_2 N 10.00000 6.00000 1.00000 Uiso 1.00
A10_3 N 10.00000 6.00000 2.00000 Uiso 1.00
A10_4 N 10.00000 6.00000 3.00000 Uiso 1.00
A10_5 N 10.00000 6.00000 4.00000 Uiso 1.00
A10_6 N 10.00000 6.00000 5.00000 Uiso 1.00
A10_7 N 10.00000 6.00000 6.00000 Uiso 1.00
A10_8 N 10.00000 6.00000 7.00000 Uiso 1.00
A10_9 N 10.00000 6.00000 8.00000 Uiso 1.00
A10_10 N 10.00000 6.00000 9.00000 Uiso 1.00
A10_7 N 10.00000 6.00000 10.00000 Uiso 1.00
A10_1 N 10.00000 7.00000 10.00000 Uiso 1.00
A10_2 N 10.00000 7.00000 1.00000 Uiso 1.00
A10_3 N 10.00000 7.00000 2.00000 Uiso 1.00
A10_4 N 10.00000 7.00000 3.00000 Uiso 1.00
A10_5 N 10.00000 7.00000 4.00000 Uiso 1.00
A10_6 N 10.00000 7.00000 5.00000 Uiso 1.00
A10_7 N 10.00000 7.00000 6.00000 Uiso 1.00
A10_8 N 10.00000 7.00000 7.00000 Uiso 1.00
A10_9 N 10.00000 7.00000 8.00000 Uiso 1.00
A10_10 N 10.00000 7.00000 9.00000 Uiso 1.00
A10_8 N 10.00000 7.00000 10.00000 Uiso 1.00
A10_1 N 10.00000 8.00000 10.00000 Uiso 1.00
A10_2 N 10.00000 8.00000 1.00000 Uiso 1.00
A10_3 N 10.00000 8.00000 2.00000 Uiso 1.00
A10_4 N 10.00000 8.00000 3.00000 Uiso 1.00
A10_5 N 10.00000 8.00000 4.00000 Uiso 1.00
A10_6 N 10.00000 8.00000 5.00000 Uiso 1.00
A10_7 N 10.00000 8.00000 6.00000 Uiso 1.00
A10_8 N 10.00000 8.00000 7.00000 Uiso 1.00
A10_9 N 10.00000 8.00000 8.00000 Uiso 1.00
A10_10 N 10.00000 8.00000 9.00000 Uiso 1.00
A10_9 N 10.00000 8.00000 10.00000 Uiso 1.00
A10_1 N 10.00000 9.00000 10.00000 Uiso 1.00
A10_2 N 10.00000 9.00000 1.00000 Uiso 1.00
A10_3 N 10.00000 9.00000 2.00000 Uiso 1.00
A10_4 N 10.00000 9.00000 3.00000 Uiso 1.00
A10_5 N 10.00000 9.00000 4.00000 Uiso 1.00
A10_6 N 10.00000 9.00000 5.00000 Uiso 1.00
A10_7 N 10.00000 9.00000 6.00000 Uiso 1.00
A10_8 N 10.00000 9.00000 7.00000 Uiso 1.00
A10_9 N 10.00000 9.00000 8.00000 Uiso 1.00
A10_10 N 10.00000 9.00000 9.00000 Uiso 1.00
A10_10 N 10.00000 9.00000 10.00000 Uiso 1.00
A10_1 N 10.00000 10.00000 10.00000 Uiso 1.00
A10_2 N 10.00000 10.00000 1.00000 Uiso 1.00
A10_3 N 10.00000 10.00000 2.00000 Uiso 1.00
A10_4 N 10.00000 10.00000 3.00000 Uiso 1.00
A10_5 N 10.00000 10.00000 4.00000 Uiso 1.00
A10_6 N 10.00000 10.00000 5.00000 Uiso 1.00
A10_7 N 10.00000 10.00000 6.00000 Uiso 1.00
A10_8 N 10.00000 10.00000 7.00000 Uiso 1.00
A10_9 N 10.00000 10.00000 8.00000 Uiso 1.00
A10_10 N 10.00000 10.00000 9.00000 Uiso 1.00 
