data_NU-1000_mixnodeS1_112
_audit_creation_date              2015-04-22
_audit_creation_method            'Materials Studio'
_symmetry_space_group_name_H-M    'P1'
_symmetry_Int_Tables_number       1
_symmetry_cell_setting            triclinic
loop_
_symmetry_equiv_pos_as_xyz
  x,y,z
_cell_length_a                    39.9700
_cell_length_b                    40.0000
_cell_length_c                    33.1600
_cell_angle_alpha                 90.0000
_cell_angle_beta                  90.0000
_cell_angle_gamma                 120.0000
loop_
_atom_site_label
_atom_site_type_symbol
_atom_site_fract_x
_atom_site_fract_y
_atom_site_fract_z
_atom_site_U_iso_or_equiv
_atom_site_adp_type
_atom_site_occupancy
C1     C     0.48232   0.83626   0.91686   0.00000  Uiso   1.00
C2     C     0.51988   0.16457   0.91505   0.00000  Uiso   1.00
C3     C     0.35383   0.83638   0.91650   0.00000  Uiso   1.00
C4     C     0.64356   0.16356   0.91396   0.00000  Uiso   1.00
C5     C     0.51013   0.87489   0.90938   0.00000  Uiso   1.00
C6     C     0.49329   0.12575   0.90657   0.00000  Uiso   1.00
C7     C     0.36518   0.87506   0.90838   0.00000  Uiso   1.00
C8     C     0.63222   0.12494   0.90573   0.00000  Uiso   1.00
C9     C     0.53578   0.88346   0.87708   0.00000  Uiso   1.00
C10    C     0.46629   0.11703   0.87554   0.00000  Uiso   1.00
C11    C     0.34687   0.88332   0.87702   0.00000  Uiso   1.00
C12    C     0.65065   0.11668   0.87452   0.00000  Uiso   1.00
C13    C     0.53340   0.85410   0.85250   0.00000  Uiso   1.00
C14    C     0.46645   0.14644   0.85299   0.00000  Uiso   1.00
C15    C     0.31862   0.85376   0.85368   0.00000  Uiso   1.00
C16    C     0.67917   0.14633   0.85145   0.00000  Uiso   1.00
C17    C     0.50551   0.81522   0.85968   0.00000  Uiso   1.00
C18    C     0.49367   0.18544   0.86059   0.00000  Uiso   1.00
C19    C     0.30759   0.81487   0.86107   0.00000  Uiso   1.00
C20    C     0.69029   0.18519   0.85905   0.00000  Uiso   1.00
C21    C     0.48018   0.80693   0.89249   0.00000  Uiso   1.00
C22    C     0.51994   0.19390   0.89249   0.00000  Uiso   1.00
C23    C     0.32542   0.80685   0.89328   0.00000  Uiso   1.00
C24    C     0.67226   0.19321   0.89110   0.00000  Uiso   1.00
H25    H     0.46241   0.82983   0.94177   0.00000  Uiso   1.00
H26    H     0.54050   0.17110   0.93932   0.00000  Uiso   1.00
H27    H     0.36792   0.83009   0.94092   0.00000  Uiso   1.00
H28    H     0.62937   0.16974   0.93839   0.00000  Uiso   1.00
H29    H     0.55705   0.91345   0.87114   0.00000  Uiso   1.00
H30    H     0.44541   0.08701   0.86948   0.00000  Uiso   1.00
H31    H     0.35577   0.91331   0.87078   0.00000  Uiso   1.00
H32    H     0.64227   0.08678   0.86864   0.00000  Uiso   1.00
H33    H     0.55335   0.86138   0.82738   0.00000  Uiso   1.00
H34    H     0.44544   0.13917   0.82889   0.00000  Uiso   1.00
H35    H     0.30518   0.86086   0.82922   0.00000  Uiso   1.00
H36    H     0.69301   0.13937   0.82726   0.00000  Uiso   1.00
H37    H     0.45840   0.77717   0.89876   0.00000  Uiso   1.00
H38    H     0.54089   0.22381   0.89937   0.00000  Uiso   1.00
H39    H     0.31714   0.77706   0.89991   0.00000  Uiso   1.00
H40    H     0.68058   0.22294   0.89786   0.00000  Uiso   1.00
C41    C     0.51990   0.16348   0.08562   0.00000  Uiso   1.00
C42    C     0.48273   0.83629   0.08338   0.00000  Uiso   1.00
C43    C     0.64491   0.16466   0.08465   0.00000  Uiso   1.00
C44    C     0.35341   0.83595   0.08293   0.00000  Uiso   1.00
C45    C     0.49261   0.12488   0.09397   0.00000  Uiso   1.00
C46    C     0.51008   0.87495   0.09162   0.00000  Uiso   1.00
C47    C     0.63258   0.12586   0.09331   0.00000  Uiso   1.00
C48    C     0.36430   0.87460   0.09056   0.00000  Uiso   1.00
C49    C     0.46591   0.11662   0.12521   0.00000  Uiso   1.00
C50    C     0.53670   0.88309   0.12292   0.00000  Uiso   1.00
C51    C     0.65089   0.11714   0.12428   0.00000  Uiso   1.00
C52    C     0.34698   0.88300   0.12280   0.00000  Uiso   1.00
C53    C     0.46712   0.14633   0.14819   0.00000  Uiso   1.00
C54    C     0.53532   0.85344   0.14611   0.00000  Uiso   1.00
C55    C     0.68024   0.14656   0.14674   0.00000  Uiso   1.00
C56    C     0.31994   0.85355   0.14723   0.00000  Uiso   1.00
C57    C     0.49488   0.18513   0.14053   0.00000  Uiso   1.00
C58    C     0.50742   0.81458   0.13866   0.00000  Uiso   1.00
C59    C     0.69212   0.18556   0.13902   0.00000  Uiso   1.00
C60    C     0.30906   0.81470   0.14002   0.00000  Uiso   1.00
C61    C     0.52087   0.19315   0.10844   0.00000  Uiso   1.00
C62    C     0.48158   0.80664   0.10642   0.00000  Uiso   1.00
C63    C     0.67429   0.19402   0.10715   0.00000  Uiso   1.00
C64    C     0.32617   0.80656   0.10718   0.00000  Uiso   1.00
H65    H     0.54027   0.16963   0.06119   0.00000  Uiso   1.00
H66    H     0.46240   0.83011   0.05896   0.00000  Uiso   1.00
H67    H     0.63079   0.17113   0.06040   0.00000  Uiso   1.00
H68    H     0.36699   0.82962   0.05802   0.00000  Uiso   1.00
H69    H     0.44441   0.08675   0.13106   0.00000  Uiso   1.00
H70    H     0.55784   0.91305   0.12931   0.00000  Uiso   1.00
H71    H     0.64163   0.08709   0.13043   0.00000  Uiso   1.00
H72    H     0.35567   0.91296   0.12886   0.00000  Uiso   1.00
H73    H     0.44632   0.13937   0.17238   0.00000  Uiso   1.00
H74    H     0.55588   0.86043   0.17060   0.00000  Uiso   1.00
H75    H     0.69396   0.13929   0.17078   0.00000  Uiso   1.00
H76    H     0.30720   0.86074   0.17232   0.00000  Uiso   1.00
H77    H     0.54230   0.22289   0.10172   0.00000  Uiso   1.00
H78    H     0.46004   0.77688   0.09967   0.00000  Uiso   1.00
H79    H     0.68329   0.22390   0.10021   0.00000  Uiso   1.00
H80    H     0.31819   0.77680   0.10081   0.00000  Uiso   1.00
Zr81   Zr    0.53614   0.07228   1.00000   0.00000  Uiso   1.00
Zr82   Zr    0.54671   0.99919   0.94855   0.00000  Uiso   1.00
Zr83   Zr    0.54310   0.00078   0.05676   0.00000  Uiso   1.00
Zr84   Zr    0.45244   0.99910   0.05160   0.00000  Uiso   1.00
Zr85   Zr    0.46371   0.92743   0.00018   0.00000  Uiso   1.00
Zr86   Zr    0.45765   0.00072   0.94337   0.00000  Uiso   1.00
O87    O     0.52155   0.96937   0.00163   0.00000  Uiso   1.00
O88    O     0.48181   0.89590   0.04297   0.00000  Uiso   1.00
O89    O     0.41171   0.89590   0.03984   0.00000  Uiso   1.00
O90    O     0.48422   0.89602   0.96040   0.00000  Uiso   1.00
O91    O     0.53708   0.94071   0.92702   0.00000  Uiso   1.00
O92    O     0.53463   0.00121   0.88025   0.00000  Uiso   1.00
O93    O     0.59021   0.05883   0.92048   0.00000  Uiso   1.00
O94    O     0.46977   0.05964   0.91975   0.00000  Uiso   1.00
O95    O     0.58722   0.10395   0.95887   0.00000  Uiso   1.00
O96    O     0.51913   0.10433   0.95733   0.00000  Uiso   1.00
O97    O     0.58522   0.10436   0.04264   0.00000  Uiso   1.00
O98    O     0.51670   0.10387   0.04101   0.00000  Uiso   1.00
O99    O     0.46861   0.05877   0.07949   0.00000  Uiso   1.00
O100   O     0.58986   0.05973   0.08028   0.00000  Uiso   1.00
O101   O     0.51408   0.03069   0.04475   0.00000  Uiso   1.00
O102   O     0.57212   0.04013   0.00178   0.00000  Uiso   1.00
O103   O     0.59891   0.00052   0.96191   0.00000  Uiso   1.00
O104   O     0.59842   0.99838   0.04122   0.00000  Uiso   1.00
O105   O     0.39991   0.99833   0.95893   0.00000  Uiso   1.00
O106   O     0.51665   0.03072   0.95528   0.00000  Uiso   1.00
O107   O     0.48139   0.95970   0.93733   0.00000  Uiso   1.00
O108   O     0.40488   0.94085   0.92618   0.00000  Uiso   1.00
O109   O     0.46794   0.99942   0.88118   0.00000  Uiso   1.00
O110   O     0.41414   0.89590   0.95736   0.00000  Uiso   1.00
O111   O     0.53150   0.99951   0.11897   0.00000  Uiso   1.00
O112   O     0.46657   0.00124   0.11984   0.00000  Uiso   1.00
O113   O     0.47831   0.95970   0.06288   0.00000  Uiso   1.00
O114   O     0.53605   0.94085   0.07413   0.00000  Uiso   1.00
O115   O     0.40345   0.94050   0.07322   0.00000  Uiso   1.00
O116   O     0.40154   0.00038   0.03827   0.00000  Uiso   1.00
O117   O     0.46797   0.04004   0.99828   0.00000  Uiso   1.00
O118   O     0.44779   0.96931   0.99858   0.00000  Uiso   1.00
C119   C     0.39687   0.90635   0.93254   0.00000  Uiso   1.00
C120   C     0.51074   0.90621   0.93423   0.00000  Uiso   1.00
C121   C     0.50959   0.90632   0.06770   0.00000  Uiso   1.00
C122   C     0.60015   0.09425   0.07042   0.00000  Uiso   1.00
C123   C     0.49257   0.09344   0.06978   0.00000  Uiso   1.00
C124   C     0.49407   0.09419   0.92955   0.00000  Uiso   1.00
C125   C     0.39522   0.90601   0.06592   0.00000  Uiso   1.00
C126   C     0.60088   0.09350   0.93004   0.00000  Uiso   1.00
H127   H     0.45694   0.05664   0.99867   0.00000  Uiso   1.00
H128   H     0.47300   0.94359   0.91363   0.00000  Uiso   1.00
H129   H     0.59251   0.97278   0.04922   0.00000  Uiso   1.00
H130   H     0.60122   0.99939   0.01077   0.00000  Uiso   1.00
H131   H     0.37921   0.97855   0.04979   0.00000  Uiso   1.00
H132   H     0.49149   0.00049   0.12256   0.00000  Uiso   1.00
H133   H     0.55194   0.02151   0.13263   0.00000  Uiso   1.00
H134   H     0.47264   0.02682   0.12823   0.00000  Uiso   1.00
H135   H     0.59974   0.05672   0.00133   0.00000  Uiso   1.00
H136   H     0.47060   0.94359   0.08658   0.00000  Uiso   1.00
H137   H     0.59950   0.97875   0.95033   0.00000  Uiso   1.00
H138   H     0.39809   0.99928   0.98938   0.00000  Uiso   1.00
H139   H     0.38020   0.97272   0.95097   0.00000  Uiso   1.00
H140   H     0.55416   0.02679   0.87186   0.00000  Uiso   1.00
H141   H     0.46951   0.02142   0.86752   0.00000  Uiso   1.00
H142   H     0.50897   0.00043   0.87756   0.00000  Uiso   1.00
C143   C     0.83615   0.35394   0.91686   0.00000  Uiso   1.00
C144   C     0.16470   0.64470   0.91505   0.00000  Uiso   1.00
C145   C     0.83626   0.48246   0.91650   0.00000  Uiso   1.00
C146   C     0.16368   0.52011   0.91396   0.00000  Uiso   1.00
C147   C     0.87477   0.36477   0.90938   0.00000  Uiso   1.00
C148   C     0.12585   0.63246   0.90657   0.00000  Uiso   1.00
C149   C     0.87497   0.50977   0.90838   0.00000  Uiso   1.00
C150   C     0.12502   0.49280   0.90573   0.00000  Uiso   1.00
C151   C     0.88337   0.34771   0.87708   0.00000  Uiso   1.00
C152   C     0.11711   0.65070   0.87554   0.00000  Uiso   1.00
C153   C     0.88323   0.53633   0.87702   0.00000  Uiso   1.00
C154   C     0.11676   0.46615   0.87452   0.00000  Uiso   1.00
C155   C     0.85397   0.32072   0.85250   0.00000  Uiso   1.00
C156   C     0.14656   0.67995   0.85299   0.00000  Uiso   1.00
C157   C     0.85364   0.53500   0.85368   0.00000  Uiso   1.00
C158   C     0.14642   0.46728   0.85145   0.00000  Uiso   1.00
C159   C     0.81507   0.30972   0.85968   0.00000  Uiso   1.00
C160   C     0.18558   0.69178   0.86059   0.00000  Uiso   1.00
C161   C     0.81473   0.50714   0.86107   0.00000  Uiso   1.00
C162   C     0.18532   0.49502   0.85905   0.00000  Uiso   1.00
C163   C     0.80678   0.32675   0.89249   0.00000  Uiso   1.00
C164   C     0.19403   0.67397   0.89249   0.00000  Uiso   1.00
C165   C     0.80671   0.48131   0.89328   0.00000  Uiso   1.00
C166   C     0.19335   0.52106   0.89110   0.00000  Uiso   1.00
H167   H     0.82970   0.36740   0.94177   0.00000  Uiso   1.00
H168   H     0.17123   0.63061   0.93932   0.00000  Uiso   1.00
H169   H     0.82996   0.46208   0.94092   0.00000  Uiso   1.00
H170   H     0.16986   0.54046   0.93839   0.00000  Uiso   1.00
H171   H     0.91337   0.35643   0.87114   0.00000  Uiso   1.00
H172   H     0.08707   0.64155   0.86948   0.00000  Uiso   1.00
H173   H     0.91325   0.55743   0.87078   0.00000  Uiso   1.00
H174   H     0.08682   0.44462   0.86864   0.00000  Uiso   1.00
H175   H     0.86124   0.30805   0.82738   0.00000  Uiso   1.00
H176   H     0.13926   0.69366   0.82889   0.00000  Uiso   1.00
H177   H     0.86075   0.55556   0.82922   0.00000  Uiso   1.00
H178   H     0.13945   0.44649   0.82726   0.00000  Uiso   1.00
H179   H     0.77701   0.31876   0.89876   0.00000  Uiso   1.00
H180   H     0.22399   0.68295   0.89937   0.00000  Uiso   1.00
H181   H     0.77691   0.45980   0.89991   0.00000  Uiso   1.00
H182   H     0.22312   0.54251   0.89786   0.00000  Uiso   1.00
C183   C     0.16362   0.64360   0.08562   0.00000  Uiso   1.00
C184   C     0.83617   0.35354   0.08338   0.00000  Uiso   1.00
C185   C     0.16477   0.51985   0.08465   0.00000  Uiso   1.00
C186   C     0.83584   0.48243   0.08293   0.00000  Uiso   1.00
C187   C     0.12497   0.63226   0.09397   0.00000  Uiso   1.00
C188   C     0.87485   0.36489   0.09162   0.00000  Uiso   1.00
C189   C     0.12596   0.49337   0.09331   0.00000  Uiso   1.00
C190   C     0.87451   0.51020   0.09056   0.00000  Uiso   1.00
C191   C     0.11674   0.65070   0.12521   0.00000  Uiso   1.00
C192   C     0.88301   0.34644   0.12292   0.00000  Uiso   1.00
C193   C     0.11722   0.46635   0.12428   0.00000  Uiso   1.00
C194   C     0.88292   0.53593   0.12280   0.00000  Uiso   1.00
C195   C     0.14643   0.67919   0.14819   0.00000  Uiso   1.00
C196   C     0.85331   0.31815   0.14611   0.00000  Uiso   1.00
C197   C     0.14666   0.46644   0.14674   0.00000  Uiso   1.00
C198   C     0.85343   0.53347   0.14723   0.00000  Uiso   1.00
C199   C     0.18529   0.69025   0.14053   0.00000  Uiso   1.00
C200   C     0.81444   0.30715   0.13866   0.00000  Uiso   1.00
C201   C     0.18570   0.49358   0.13902   0.00000  Uiso   1.00
C202   C     0.81457   0.50553   0.14002   0.00000  Uiso   1.00
C203   C     0.19329   0.67230   0.10844   0.00000  Uiso   1.00
C204   C     0.80648   0.32505   0.10642   0.00000  Uiso   1.00
C205   C     0.19414   0.51985   0.10715   0.00000  Uiso   1.00
C206   C     0.80640   0.48024   0.10718   0.00000  Uiso   1.00
H207   H     0.16978   0.62940   0.06119   0.00000  Uiso   1.00
H208   H     0.82999   0.36769   0.05896   0.00000  Uiso   1.00
H209   H     0.17124   0.54043   0.06040   0.00000  Uiso   1.00
H210   H     0.82949   0.46254   0.05802   0.00000  Uiso   1.00
H211   H     0.08682   0.64230   0.13106   0.00000  Uiso   1.00
H212   H     0.91298   0.35524   0.12931   0.00000  Uiso   1.00
H213   H     0.08715   0.44557   0.13043   0.00000  Uiso   1.00
H214   H     0.91291   0.55720   0.12886   0.00000  Uiso   1.00
H215   H     0.13949   0.69302   0.17238   0.00000  Uiso   1.00
H216   H     0.86033   0.30461   0.17060   0.00000  Uiso   1.00
H217   H     0.13940   0.44548   0.17078   0.00000  Uiso   1.00
H218   H     0.86066   0.55342   0.17232   0.00000  Uiso   1.00
H219   H     0.22307   0.68061   0.10172   0.00000  Uiso   1.00
H220   H     0.77672   0.31682   0.09967   0.00000  Uiso   1.00
H221   H     0.22407   0.54075   0.10021   0.00000  Uiso   1.00
H222   H     0.77664   0.45847   0.10081   0.00000  Uiso   1.00
Zr223  Zr    0.07233   0.53616   1.00000   0.00000  Uiso   1.00
Zr224  Zr    0.99919   0.45253   0.94855   0.00000  Uiso   1.00
Zr225  Zr    0.00079   0.45772   0.05676   0.00000  Uiso   1.00
Zr226  Zr    0.99910   0.54661   0.05160   0.00000  Uiso   1.00
Zr227  Zr    0.92737   0.46370   0.00018   0.00000  Uiso   1.00
Zr228  Zr    0.00073   0.54306   0.94337   0.00000  Uiso   1.00
O229   O     0.96936   0.44782   0.00163   0.00000  Uiso   1.00
O230   O     0.89583   0.41408   0.04297   0.00000  Uiso   1.00
O231   O     0.89583   0.48411   0.03984   0.00000  Uiso   1.00
O232   O     0.89594   0.41180   0.96040   0.00000  Uiso   1.00
O233   O     0.94064   0.40363   0.92702   0.00000  Uiso   1.00
O234   O     0.00121   0.46661   0.88025   0.00000  Uiso   1.00
O235   O     0.05889   0.46869   0.92048   0.00000  Uiso   1.00
O236   O     0.05969   0.58985   0.91975   0.00000  Uiso   1.00
O237   O     0.10402   0.51679   0.95887   0.00000  Uiso   1.00
O238   O     0.10440   0.58520   0.95733   0.00000  Uiso   1.00
O239   O     0.10443   0.51921   0.04264   0.00000  Uiso   1.00
O240   O     0.10395   0.58719   0.04101   0.00000  Uiso   1.00
O241   O     0.05881   0.59014   0.07949   0.00000  Uiso   1.00
O242   O     0.05976   0.46993   0.08028   0.00000  Uiso   1.00
O243   O     0.03073   0.51661   0.04475   0.00000  Uiso   1.00
O244   O     0.04016   0.46806   0.00178   0.00000  Uiso   1.00
O245   O     0.00052   0.40169   0.96191   0.00000  Uiso   1.00
O246   O     0.99840   0.40005   0.04122   0.00000  Uiso   1.00
O247   O     0.99834   0.59834   0.95893   0.00000  Uiso   1.00
O248   O     0.03073   0.51407   0.95528   0.00000  Uiso   1.00
O249   O     0.95967   0.47831   0.93733   0.00000  Uiso   1.00
O250   O     0.94083   0.53590   0.92618   0.00000  Uiso   1.00
O251   O     0.99944   0.53148   0.88118   0.00000  Uiso   1.00
O252   O     0.89583   0.48171   0.95736   0.00000  Uiso   1.00
O253   O     0.99951   0.46803   0.11897   0.00000  Uiso   1.00
O254   O     0.00125   0.53466   0.11984   0.00000  Uiso   1.00
O255   O     0.95968   0.48137   0.06288   0.00000  Uiso   1.00
O256   O     0.94080   0.40484   0.07413   0.00000  Uiso   1.00
O257   O     0.94045   0.53699   0.07322   0.00000  Uiso   1.00
O258   O     0.00039   0.59877   0.03827   0.00000  Uiso   1.00
O259   O     0.04007   0.57204   0.99828   0.00000  Uiso   1.00
O260   O     0.96930   0.52149   0.99858   0.00000  Uiso   1.00
C261   C     0.90628   0.50940   0.93254   0.00000  Uiso   1.00
C262   C     0.90613   0.39546   0.93423   0.00000  Uiso   1.00
C263   C     0.90624   0.39673   0.06770   0.00000  Uiso   1.00
C264   C     0.09432   0.49415   0.07042   0.00000  Uiso   1.00
C265   C     0.09349   0.60085   0.06978   0.00000  Uiso   1.00
C266   C     0.09426   0.60013   0.92955   0.00000  Uiso   1.00
C267   C     0.90594   0.51072   0.06592   0.00000  Uiso   1.00
C268   C     0.09358   0.49271   0.93004   0.00000  Uiso   1.00
H269   H     0.05667   0.59966   0.99867   0.00000  Uiso   1.00
H270   H     0.94354   0.47057   0.91363   0.00000  Uiso   1.00
H271   H     0.97274   0.38033   0.04922   0.00000  Uiso   1.00
H272   H     0.99938   0.39826   0.01077   0.00000  Uiso   1.00
H273   H     0.97854   0.59926   0.04979   0.00000  Uiso   1.00
H274   H     0.00051   0.50902   0.12256   0.00000  Uiso   1.00
H275   H     0.02151   0.46959   0.13263   0.00000  Uiso   1.00
H276   H     0.02683   0.55417   0.12823   0.00000  Uiso   1.00
H277   H     0.05677   0.45706   0.00133   0.00000  Uiso   1.00
H278   H     0.94354   0.47297   0.08658   0.00000  Uiso   1.00
H279   H     0.97872   0.37932   0.95033   0.00000  Uiso   1.00
H280   H     0.99928   0.60111   0.98938   0.00000  Uiso   1.00
H281   H     0.97269   0.59242   0.95097   0.00000  Uiso   1.00
H282   H     0.02679   0.47265   0.87186   0.00000  Uiso   1.00
H283   H     0.02144   0.55189   0.86752   0.00000  Uiso   1.00
H284   H     0.00044   0.49147   0.87756   0.00000  Uiso   1.00
C285   C     0.51775   0.35397   0.08314   0.00000  Uiso   1.00
C286   C     0.48004   0.64467   0.08495   0.00000  Uiso   1.00
C287   C     0.64622   0.48252   0.08350   0.00000  Uiso   1.00
C288   C     0.35638   0.52002   0.08604   0.00000  Uiso   1.00
C289   C     0.48994   0.36480   0.09062   0.00000  Uiso   1.00
C290   C     0.50664   0.63243   0.09343   0.00000  Uiso   1.00
C291   C     0.63484   0.50983   0.09162   0.00000  Uiso   1.00
C292   C     0.36776   0.49277   0.09427   0.00000  Uiso   1.00
C293   C     0.46425   0.34771   0.12292   0.00000  Uiso   1.00
C294   C     0.53365   0.65070   0.12446   0.00000  Uiso   1.00
C295   C     0.65313   0.53639   0.12298   0.00000  Uiso   1.00
C296   C     0.34933   0.46609   0.12548   0.00000  Uiso   1.00
C297   C     0.46667   0.32075   0.14750   0.00000  Uiso   1.00
C298   C     0.53347   0.67995   0.14701   0.00000  Uiso   1.00
C299   C     0.68139   0.53506   0.14632   0.00000  Uiso   1.00
C300   C     0.32080   0.46722   0.14855   0.00000  Uiso   1.00
C301   C     0.49458   0.30978   0.14032   0.00000  Uiso   1.00
C302   C     0.50626   0.69175   0.13941   0.00000  Uiso   1.00
C303   C     0.69246   0.50723   0.13893   0.00000  Uiso   1.00
C304   C     0.30966   0.49496   0.14095   0.00000  Uiso   1.00
C305   C     0.51991   0.32678   0.10751   0.00000  Uiso   1.00
C306   C     0.47998   0.67394   0.10751   0.00000  Uiso   1.00
C307   C     0.67465   0.48139   0.10672   0.00000  Uiso   1.00
C308   C     0.32768   0.52097   0.10890   0.00000  Uiso   1.00
H309   H     0.53766   0.36745   0.05823   0.00000  Uiso   1.00
H310   H     0.45944   0.63058   0.06068   0.00000  Uiso   1.00
H311   H     0.63212   0.46214   0.05908   0.00000  Uiso   1.00
H312   H     0.37058   0.54040   0.06161   0.00000  Uiso   1.00
H313   H     0.44301   0.35646   0.12886   0.00000  Uiso   1.00
H314   H     0.55454   0.64155   0.13052   0.00000  Uiso   1.00
H315   H     0.64424   0.55746   0.12922   0.00000  Uiso   1.00
H316   H     0.35772   0.44456   0.13136   0.00000  Uiso   1.00
H317   H     0.44672   0.30807   0.17262   0.00000  Uiso   1.00
H318   H     0.55447   0.69366   0.17111   0.00000  Uiso   1.00
H319   H     0.69485   0.55561   0.17078   0.00000  Uiso   1.00
H320   H     0.30697   0.44644   0.17274   0.00000  Uiso   1.00
H321   H     0.54169   0.31881   0.10124   0.00000  Uiso   1.00
H322   H     0.45903   0.68292   0.10063   0.00000  Uiso   1.00
H323   H     0.68292   0.45986   0.10009   0.00000  Uiso   1.00
H324   H     0.31937   0.54242   0.10214   0.00000  Uiso   1.00
C325   C     0.48005   0.64357   0.91438   0.00000  Uiso   1.00
C326   C     0.51732   0.35357   0.91662   0.00000  Uiso   1.00
C327   C     0.35506   0.51979   0.91535   0.00000  Uiso   1.00
C328   C     0.64661   0.48249   0.91707   0.00000  Uiso   1.00
C329   C     0.50732   0.63223   0.90603   0.00000  Uiso   1.00
C330   C     0.49000   0.36491   0.90838   0.00000  Uiso   1.00
C331   C     0.36738   0.49332   0.90669   0.00000  Uiso   1.00
C332   C     0.63573   0.51026   0.90944   0.00000  Uiso   1.00
C333   C     0.53401   0.65067   0.87479   0.00000  Uiso   1.00
C334   C     0.46337   0.34644   0.87708   0.00000  Uiso   1.00
C335   C     0.34911   0.46630   0.87572   0.00000  Uiso   1.00
C336   C     0.65303   0.53598   0.87720   0.00000  Uiso   1.00
C337   C     0.53283   0.67917   0.85181   0.00000  Uiso   1.00
C338   C     0.46476   0.31818   0.85389   0.00000  Uiso   1.00
C339   C     0.31976   0.46638   0.85326   0.00000  Uiso   1.00
C340   C     0.68009   0.53356   0.85277   0.00000  Uiso   1.00
C341   C     0.50504   0.69022   0.85947   0.00000  Uiso   1.00
C342   C     0.49265   0.30721   0.86134   0.00000  Uiso   1.00
C343   C     0.30783   0.49349   0.86098   0.00000  Uiso   1.00
C344   C     0.69099   0.50559   0.85998   0.00000  Uiso   1.00
C345   C     0.47905   0.67224   0.89156   0.00000  Uiso   1.00
C346   C     0.51850   0.32508   0.89358   0.00000  Uiso   1.00
C347   C     0.32565   0.51976   0.89285   0.00000  Uiso   1.00
C348   C     0.67387   0.48033   0.89282   0.00000  Uiso   1.00
H349   H     0.45967   0.62934   0.93881   0.00000  Uiso   1.00
H350   H     0.53767   0.36774   0.94104   0.00000  Uiso   1.00
H351   H     0.36916   0.54037   0.93960   0.00000  Uiso   1.00
H352   H     0.63305   0.46260   0.94198   0.00000  Uiso   1.00
H353   H     0.55553   0.64227   0.86894   0.00000  Uiso   1.00
H354   H     0.44220   0.35524   0.87069   0.00000  Uiso   1.00
H355   H     0.35837   0.44551   0.86957   0.00000  Uiso   1.00
H356   H     0.64435   0.55723   0.87114   0.00000  Uiso   1.00
H357   H     0.55361   0.69299   0.82762   0.00000  Uiso   1.00
H358   H     0.44421   0.30461   0.82940   0.00000  Uiso   1.00
H359   H     0.30603   0.44540   0.82922   0.00000  Uiso   1.00
H360   H     0.69283   0.55348   0.82768   0.00000  Uiso   1.00
H361   H     0.45759   0.68055   0.89828   0.00000  Uiso   1.00
H362   H     0.54004   0.31688   0.90033   0.00000  Uiso   1.00
H363   H     0.31664   0.54066   0.89979   0.00000  Uiso   1.00
H364   H     0.68187   0.45856   0.89919   0.00000  Uiso   1.00
Zr365  Zr    0.46383   0.53616   1.00000   0.00000  Uiso   1.00
Zr366  Zr    0.45331   0.45250   0.05145   0.00000  Uiso   1.00
Zr367  Zr    0.45691   0.45769   0.94324   0.00000  Uiso   1.00
Zr368  Zr    0.54755   0.54664   0.94840   0.00000  Uiso   1.00
Zr369  Zr    0.53632   0.46373   0.99982   0.00000  Uiso   1.00
Zr370  Zr    0.54233   0.54306   0.05663   0.00000  Uiso   1.00
O371   O     0.47844   0.44782   0.99837   0.00000  Uiso   1.00
O372   O     0.51822   0.41410   0.95703   0.00000  Uiso   1.00
O373   O     0.58830   0.48417   0.96016   0.00000  Uiso   1.00
O374   O     0.51582   0.41182   0.03960   0.00000  Uiso   1.00
O375   O     0.46295   0.40365   0.07298   0.00000  Uiso   1.00
O376   O     0.46538   0.46661   0.11975   0.00000  Uiso   1.00
O377   O     0.40979   0.46866   0.07952   0.00000  Uiso   1.00
O378   O     0.53020   0.58985   0.08025   0.00000  Uiso   1.00
O379   O     0.41274   0.51676   0.04113   0.00000  Uiso   1.00
O380   O     0.48082   0.58517   0.04267   0.00000  Uiso   1.00
O381   O     0.41475   0.51918   0.95736   0.00000  Uiso   1.00
O382   O     0.48327   0.58717   0.95899   0.00000  Uiso   1.00
O383   O     0.53137   0.59014   0.92054   0.00000  Uiso   1.00
O384   O     0.41014   0.46991   0.91972   0.00000  Uiso   1.00
O385   O     0.48590   0.51661   0.95525   0.00000  Uiso   1.00
O386   O     0.42786   0.46803   0.99822   0.00000  Uiso   1.00
O387   O     0.40111   0.40166   0.03809   0.00000  Uiso   1.00
O388   O     0.40162   0.40005   0.95878   0.00000  Uiso   1.00
O389   O     0.60006   0.59837   0.04107   0.00000  Uiso   1.00
O390   O     0.48335   0.51407   0.04472   0.00000  Uiso   1.00
O391   O     0.51862   0.47831   0.06267   0.00000  Uiso   1.00
O392   O     0.59511   0.53593   0.07382   0.00000  Uiso   1.00
O393   O     0.53206   0.53148   0.11882   0.00000  Uiso   1.00
O394   O     0.58588   0.48174   0.04264   0.00000  Uiso   1.00
O395   O     0.46849   0.46803   0.88103   0.00000  Uiso   1.00
O396   O     0.53340   0.53466   0.88016   0.00000  Uiso   1.00
O397   O     0.52169   0.48139   0.93712   0.00000  Uiso   1.00
O398   O     0.46399   0.40484   0.92587   0.00000  Uiso   1.00
O399   O     0.59656   0.53702   0.92678   0.00000  Uiso   1.00
O400   O     0.59843   0.59877   0.96173   0.00000  Uiso   1.00
O401   O     0.53199   0.57204   0.00172   0.00000  Uiso   1.00
O402   O     0.55222   0.52152   0.00142   0.00000  Uiso   1.00
C403   C     0.60314   0.50943   0.06746   0.00000  Uiso   1.00
C404   C     0.48928   0.39548   0.06577   0.00000  Uiso   1.00
C405   C     0.49045   0.39676   0.93230   0.00000  Uiso   1.00
C406   C     0.39984   0.49413   0.92958   0.00000  Uiso   1.00
C407   C     0.50740   0.60085   0.93022   0.00000  Uiso   1.00
C408   C     0.50590   0.60010   0.07045   0.00000  Uiso   1.00
C409   C     0.60478   0.51075   0.93408   0.00000  Uiso   1.00
C410   C     0.39910   0.49265   0.06996   0.00000  Uiso   1.00
H411   H     0.54304   0.59966   0.00133   0.00000  Uiso   1.00
H412   H     0.52702   0.47060   0.08637   0.00000  Uiso   1.00
H413   H     0.40752   0.38033   0.95078   0.00000  Uiso   1.00
H414   H     0.39881   0.39823   0.98923   0.00000  Uiso   1.00
H415   H     0.62079   0.59929   0.95021   0.00000  Uiso   1.00
H416   H     0.50852   0.50902   0.87744   0.00000  Uiso   1.00
H417   H     0.44805   0.46959   0.86737   0.00000  Uiso   1.00
H418   H     0.52736   0.55417   0.87177   0.00000  Uiso   1.00
H419   H     0.40024   0.45703   0.99867   0.00000  Uiso   1.00
H420   H     0.52942   0.47299   0.91342   0.00000  Uiso   1.00
H421   H     0.40052   0.37929   0.04967   0.00000  Uiso   1.00
H422   H     0.60189   0.60114   0.01062   0.00000  Uiso   1.00
H423   H     0.61979   0.59245   0.04903   0.00000  Uiso   1.00
H424   H     0.44583   0.47265   0.12814   0.00000  Uiso   1.00
H425   H     0.53049   0.55189   0.13248   0.00000  Uiso   1.00
H426   H     0.49103   0.49147   0.12244   0.00000  Uiso   1.00
C427   C     0.48232   0.83626   0.41686   0.00000  Uiso   1.00
C428   C     0.51988   0.16457   0.41505   0.00000  Uiso   1.00
C429   C     0.35383   0.83638   0.41650   0.00000  Uiso   1.00
C430   C     0.64356   0.16356   0.41396   0.00000  Uiso   1.00
C431   C     0.51013   0.87489   0.40938   0.00000  Uiso   1.00
C432   C     0.49329   0.12575   0.40657   0.00000  Uiso   1.00
C433   C     0.36518   0.87506   0.40838   0.00000  Uiso   1.00
C434   C     0.63222   0.12494   0.40573   0.00000  Uiso   1.00
C435   C     0.53578   0.88346   0.37708   0.00000  Uiso   1.00
C436   C     0.46629   0.11703   0.37554   0.00000  Uiso   1.00
C437   C     0.34687   0.88332   0.37702   0.00000  Uiso   1.00
C438   C     0.65065   0.11668   0.37452   0.00000  Uiso   1.00
C439   C     0.53340   0.85410   0.35250   0.00000  Uiso   1.00
C440   C     0.46645   0.14644   0.35299   0.00000  Uiso   1.00
C441   C     0.31862   0.85376   0.35368   0.00000  Uiso   1.00
C442   C     0.67917   0.14633   0.35145   0.00000  Uiso   1.00
C443   C     0.50551   0.81522   0.35968   0.00000  Uiso   1.00
C444   C     0.49364   0.18544   0.36059   0.00000  Uiso   1.00
C445   C     0.30759   0.81487   0.36107   0.00000  Uiso   1.00
C446   C     0.69029   0.18519   0.35905   0.00000  Uiso   1.00
C447   C     0.48018   0.80693   0.39249   0.00000  Uiso   1.00
C448   C     0.51994   0.19390   0.39249   0.00000  Uiso   1.00
C449   C     0.32542   0.80685   0.39328   0.00000  Uiso   1.00
C450   C     0.67226   0.19321   0.39110   0.00000  Uiso   1.00
H451   H     0.46241   0.82983   0.44177   0.00000  Uiso   1.00
H452   H     0.54050   0.17110   0.43932   0.00000  Uiso   1.00
H453   H     0.36792   0.83009   0.44092   0.00000  Uiso   1.00
H454   H     0.62937   0.16974   0.43839   0.00000  Uiso   1.00
H455   H     0.55705   0.91345   0.37114   0.00000  Uiso   1.00
H456   H     0.44541   0.08701   0.36948   0.00000  Uiso   1.00
H457   H     0.35577   0.91331   0.37078   0.00000  Uiso   1.00
H458   H     0.64227   0.08678   0.36864   0.00000  Uiso   1.00
H459   H     0.55335   0.86138   0.32738   0.00000  Uiso   1.00
H460   H     0.44544   0.13917   0.32889   0.00000  Uiso   1.00
H461   H     0.30518   0.86086   0.32922   0.00000  Uiso   1.00
H462   H     0.69301   0.13937   0.32726   0.00000  Uiso   1.00
H463   H     0.45840   0.77717   0.39876   0.00000  Uiso   1.00
H464   H     0.54089   0.22381   0.39937   0.00000  Uiso   1.00
H465   H     0.31714   0.77706   0.39991   0.00000  Uiso   1.00
H466   H     0.68058   0.22294   0.39786   0.00000  Uiso   1.00
C467   C     0.51990   0.16348   0.58562   0.00000  Uiso   1.00
C468   C     0.48276   0.83629   0.58338   0.00000  Uiso   1.00
C469   C     0.64491   0.16466   0.58465   0.00000  Uiso   1.00
C470   C     0.35341   0.83595   0.58293   0.00000  Uiso   1.00
C471   C     0.49261   0.12488   0.59397   0.00000  Uiso   1.00
C472   C     0.51008   0.87495   0.59162   0.00000  Uiso   1.00
C473   C     0.63258   0.12586   0.59331   0.00000  Uiso   1.00
C474   C     0.36430   0.87460   0.59056   0.00000  Uiso   1.00
C475   C     0.46591   0.11662   0.62521   0.00000  Uiso   1.00
C476   C     0.53670   0.88309   0.62292   0.00000  Uiso   1.00
C477   C     0.65089   0.11714   0.62428   0.00000  Uiso   1.00
C478   C     0.34698   0.88300   0.62280   0.00000  Uiso   1.00
C479   C     0.46712   0.14633   0.64819   0.00000  Uiso   1.00
C480   C     0.53532   0.85344   0.64611   0.00000  Uiso   1.00
C481   C     0.68024   0.14656   0.64674   0.00000  Uiso   1.00
C482   C     0.31994   0.85355   0.64723   0.00000  Uiso   1.00
C483   C     0.49488   0.18513   0.64053   0.00000  Uiso   1.00
C484   C     0.50742   0.81458   0.63866   0.00000  Uiso   1.00
C485   C     0.69212   0.18556   0.63902   0.00000  Uiso   1.00
C486   C     0.30906   0.81470   0.64002   0.00000  Uiso   1.00
C487   C     0.52087   0.19315   0.60844   0.00000  Uiso   1.00
C488   C     0.48158   0.80664   0.60642   0.00000  Uiso   1.00
C489   C     0.67429   0.19402   0.60715   0.00000  Uiso   1.00
C490   C     0.32617   0.80656   0.60718   0.00000  Uiso   1.00
H491   H     0.54027   0.16963   0.56119   0.00000  Uiso   1.00
H492   H     0.46240   0.83011   0.55896   0.00000  Uiso   1.00
H493   H     0.63079   0.17113   0.56040   0.00000  Uiso   1.00
H494   H     0.36699   0.82962   0.55802   0.00000  Uiso   1.00
H495   H     0.44441   0.08675   0.63106   0.00000  Uiso   1.00
H496   H     0.55784   0.91305   0.62931   0.00000  Uiso   1.00
H497   H     0.64163   0.08709   0.63043   0.00000  Uiso   1.00
H498   H     0.35567   0.91296   0.62886   0.00000  Uiso   1.00
H499   H     0.44632   0.13937   0.67238   0.00000  Uiso   1.00
H500   H     0.55588   0.86043   0.67060   0.00000  Uiso   1.00
H501   H     0.69396   0.13929   0.67078   0.00000  Uiso   1.00
H502   H     0.30720   0.86074   0.67232   0.00000  Uiso   1.00
H503   H     0.54230   0.22289   0.60172   0.00000  Uiso   1.00
H504   H     0.46004   0.77688   0.59967   0.00000  Uiso   1.00
H505   H     0.68329   0.22390   0.60021   0.00000  Uiso   1.00
H506   H     0.31819   0.77680   0.60081   0.00000  Uiso   1.00
Zr507  Zr    0.53614   0.07228   0.50000   0.00000  Uiso   1.00
Zr508  Zr    0.54671   0.99919   0.44855   0.00000  Uiso   1.00
Zr509  Zr    0.54310   0.00078   0.55676   0.00000  Uiso   1.00
Zr510  Zr    0.45244   0.99910   0.55160   0.00000  Uiso   1.00
Zr511  Zr    0.46371   0.92743   0.50018   0.00000  Uiso   1.00
Zr512  Zr    0.45765   0.00072   0.44337   0.00000  Uiso   1.00
O513   O     0.52155   0.96937   0.50163   0.00000  Uiso   1.00
O514   O     0.48181   0.89590   0.54297   0.00000  Uiso   1.00
O515   O     0.41171   0.89590   0.53984   0.00000  Uiso   1.00
O516   O     0.48422   0.89602   0.46040   0.00000  Uiso   1.00
O517   O     0.53708   0.94071   0.42702   0.00000  Uiso   1.00
O518   O     0.53463   0.00121   0.38025   0.00000  Uiso   1.00
O519   O     0.59021   0.05883   0.42048   0.00000  Uiso   1.00
O520   O     0.46977   0.05964   0.41975   0.00000  Uiso   1.00
O521   O     0.58722   0.10395   0.45887   0.00000  Uiso   1.00
O522   O     0.51913   0.10433   0.45733   0.00000  Uiso   1.00
O523   O     0.58522   0.10436   0.54264   0.00000  Uiso   1.00
O524   O     0.51670   0.10387   0.54101   0.00000  Uiso   1.00
O525   O     0.46861   0.05877   0.57949   0.00000  Uiso   1.00
O526   O     0.58986   0.05973   0.58028   0.00000  Uiso   1.00
O527   O     0.51408   0.03069   0.54475   0.00000  Uiso   1.00
O528   O     0.57212   0.04013   0.50178   0.00000  Uiso   1.00
O529   O     0.59891   0.00052   0.46191   0.00000  Uiso   1.00
O530   O     0.59842   0.99838   0.54122   0.00000  Uiso   1.00
O531   O     0.39991   0.99833   0.45893   0.00000  Uiso   1.00
O532   O     0.51665   0.03072   0.45528   0.00000  Uiso   1.00
O533   O     0.48139   0.95970   0.43733   0.00000  Uiso   1.00
O534   O     0.40488   0.94085   0.42618   0.00000  Uiso   1.00
O535   O     0.46794   0.99942   0.38118   0.00000  Uiso   1.00
O536   O     0.41414   0.89590   0.45736   0.00000  Uiso   1.00
O537   O     0.53150   0.99951   0.61897   0.00000  Uiso   1.00
O538   O     0.46657   0.00124   0.61984   0.00000  Uiso   1.00
O539   O     0.47831   0.95970   0.56288   0.00000  Uiso   1.00
O540   O     0.53605   0.94085   0.57413   0.00000  Uiso   1.00
O541   O     0.40345   0.94050   0.57322   0.00000  Uiso   1.00
O542   O     0.40154   0.00038   0.53827   0.00000  Uiso   1.00
O543   O     0.46797   0.04004   0.49828   0.00000  Uiso   1.00
O544   O     0.44779   0.96931   0.49858   0.00000  Uiso   1.00
C545   C     0.39687   0.90635   0.43254   0.00000  Uiso   1.00
C546   C     0.51074   0.90621   0.43423   0.00000  Uiso   1.00
C547   C     0.50959   0.90632   0.56770   0.00000  Uiso   1.00
C548   C     0.60015   0.09425   0.57042   0.00000  Uiso   1.00
C549   C     0.49257   0.09344   0.56978   0.00000  Uiso   1.00
C550   C     0.49407   0.09419   0.42955   0.00000  Uiso   1.00
C551   C     0.39522   0.90601   0.56592   0.00000  Uiso   1.00
C552   C     0.60088   0.09350   0.43004   0.00000  Uiso   1.00
H553   H     0.45694   0.05664   0.49867   0.00000  Uiso   1.00
H554   H     0.47300   0.94359   0.41363   0.00000  Uiso   1.00
H555   H     0.59251   0.97278   0.54922   0.00000  Uiso   1.00
H556   H     0.60122   0.99939   0.51077   0.00000  Uiso   1.00
H557   H     0.37921   0.97855   0.54979   0.00000  Uiso   1.00
H558   H     0.49149   0.00049   0.62256   0.00000  Uiso   1.00
H559   H     0.55194   0.02151   0.63263   0.00000  Uiso   1.00
H560   H     0.47264   0.02682   0.62823   0.00000  Uiso   1.00
H561   H     0.59974   0.05672   0.50133   0.00000  Uiso   1.00
H562   H     0.47060   0.94359   0.58658   0.00000  Uiso   1.00
H563   H     0.59950   0.97875   0.45033   0.00000  Uiso   1.00
H564   H     0.39809   0.99928   0.48938   0.00000  Uiso   1.00
H565   H     0.38020   0.97272   0.45097   0.00000  Uiso   1.00
H566   H     0.55416   0.02679   0.37186   0.00000  Uiso   1.00
H567   H     0.46951   0.02142   0.36752   0.00000  Uiso   1.00
H568   H     0.50897   0.00043   0.37756   0.00000  Uiso   1.00
C569   C     0.16385   0.64605   0.41686   0.00000  Uiso   1.00
C570   C     0.83530   0.35530   0.41505   0.00000  Uiso   1.00
C571   C     0.16374   0.51754   0.41650   0.00000  Uiso   1.00
C572   C     0.83632   0.47989   0.41396   0.00000  Uiso   1.00
C573   C     0.12523   0.63523   0.40938   0.00000  Uiso   1.00
C574   C     0.87415   0.36754   0.40657   0.00000  Uiso   1.00
C575   C     0.12503   0.49023   0.40838   0.00000  Uiso   1.00
C576   C     0.87498   0.50720   0.40573   0.00000  Uiso   1.00
C577   C     0.11663   0.65229   0.37708   0.00000  Uiso   1.00
C578   C     0.88289   0.34930   0.37554   0.00000  Uiso   1.00
C579   C     0.11677   0.46367   0.37702   0.00000  Uiso   1.00
C580   C     0.88324   0.53385   0.37452   0.00000  Uiso   1.00
C581   C     0.14603   0.67928   0.35250   0.00000  Uiso   1.00
C582   C     0.85343   0.32003   0.35299   0.00000  Uiso   1.00
C583   C     0.14636   0.46500   0.35368   0.00000  Uiso   1.00
C584   C     0.85358   0.53272   0.35145   0.00000  Uiso   1.00
C585   C     0.18493   0.69028   0.35968   0.00000  Uiso   1.00
C586   C     0.81442   0.30822   0.36059   0.00000  Uiso   1.00
C587   C     0.18527   0.49286   0.36107   0.00000  Uiso   1.00
C588   C     0.81468   0.50498   0.35905   0.00000  Uiso   1.00
C589   C     0.19322   0.67325   0.39249   0.00000  Uiso   1.00
C590   C     0.80597   0.32603   0.39249   0.00000  Uiso   1.00
C591   C     0.19329   0.51869   0.39328   0.00000  Uiso   1.00
C592   C     0.80665   0.47894   0.39110   0.00000  Uiso   1.00
H593   H     0.17030   0.63260   0.44177   0.00000  Uiso   1.00
H594   H     0.82877   0.36939   0.43932   0.00000  Uiso   1.00
H595   H     0.17004   0.53792   0.44092   0.00000  Uiso   1.00
H596   H     0.83014   0.45954   0.43839   0.00000  Uiso   1.00
H597   H     0.08661   0.64354   0.37114   0.00000  Uiso   1.00
H598   H     0.91293   0.35845   0.36948   0.00000  Uiso   1.00
H599   H     0.08675   0.44257   0.37078   0.00000  Uiso   1.00
H600   H     0.91318   0.55538   0.36864   0.00000  Uiso   1.00
H601   H     0.13876   0.69195   0.32738   0.00000  Uiso   1.00
H602   H     0.86074   0.30634   0.32889   0.00000  Uiso   1.00
H603   H     0.13925   0.44444   0.32922   0.00000  Uiso   1.00
H604   H     0.86055   0.55351   0.32726   0.00000  Uiso   1.00
H605   H     0.22299   0.68124   0.39876   0.00000  Uiso   1.00
H606   H     0.77601   0.31705   0.39937   0.00000  Uiso   1.00
H607   H     0.22309   0.54020   0.39991   0.00000  Uiso   1.00
H608   H     0.77688   0.45749   0.39786   0.00000  Uiso   1.00
C609   C     0.83638   0.35640   0.58562   0.00000  Uiso   1.00
C610   C     0.16383   0.64646   0.58338   0.00000  Uiso   1.00
C611   C     0.83523   0.48015   0.58465   0.00000  Uiso   1.00
C612   C     0.16416   0.51757   0.58293   0.00000  Uiso   1.00
C613   C     0.87503   0.36774   0.59397   0.00000  Uiso   1.00
C614   C     0.12515   0.63511   0.59162   0.00000  Uiso   1.00
C615   C     0.87404   0.50662   0.59331   0.00000  Uiso   1.00
C616   C     0.12549   0.48980   0.59056   0.00000  Uiso   1.00
C617   C     0.88326   0.34930   0.62521   0.00000  Uiso   1.00
C618   C     0.11699   0.65356   0.62292   0.00000  Uiso   1.00
C619   C     0.88278   0.53364   0.62428   0.00000  Uiso   1.00
C620   C     0.11707   0.46407   0.62280   0.00000  Uiso   1.00
C621   C     0.85357   0.32080   0.64819   0.00000  Uiso   1.00
C622   C     0.14669   0.68185   0.64611   0.00000  Uiso   1.00
C623   C     0.85334   0.53356   0.64674   0.00000  Uiso   1.00
C624   C     0.14657   0.46653   0.64723   0.00000  Uiso   1.00
C625   C     0.81471   0.30975   0.64053   0.00000  Uiso   1.00
C626   C     0.18556   0.69285   0.63866   0.00000  Uiso   1.00
C627   C     0.81430   0.50642   0.63902   0.00000  Uiso   1.00
C628   C     0.18542   0.49447   0.64002   0.00000  Uiso   1.00
C629   C     0.80671   0.32770   0.60844   0.00000  Uiso   1.00
C630   C     0.19352   0.67495   0.60642   0.00000  Uiso   1.00
C631   C     0.80586   0.48015   0.60715   0.00000  Uiso   1.00
C632   C     0.19360   0.51976   0.60718   0.00000  Uiso   1.00
H633   H     0.83022   0.37060   0.56119   0.00000  Uiso   1.00
H634   H     0.17000   0.63229   0.55899   0.00000  Uiso   1.00
H635   H     0.82874   0.45954   0.56040   0.00000  Uiso   1.00
H636   H     0.17051   0.53746   0.55802   0.00000  Uiso   1.00
H637   H     0.91318   0.35770   0.63106   0.00000  Uiso   1.00
H638   H     0.08702   0.64476   0.62931   0.00000  Uiso   1.00
H639   H     0.91285   0.55443   0.63043   0.00000  Uiso   1.00
H640   H     0.08709   0.44280   0.62886   0.00000  Uiso   1.00
H641   H     0.86051   0.30698   0.67238   0.00000  Uiso   1.00
H642   H     0.13967   0.69539   0.67060   0.00000  Uiso   1.00
H643   H     0.86060   0.55452   0.67078   0.00000  Uiso   1.00
H644   H     0.13934   0.44658   0.67232   0.00000  Uiso   1.00
H645   H     0.77693   0.31939   0.60172   0.00000  Uiso   1.00
H646   H     0.22328   0.68318   0.59967   0.00000  Uiso   1.00
H647   H     0.77593   0.45925   0.60021   0.00000  Uiso   1.00
H648   H     0.22336   0.54153   0.60081   0.00000  Uiso   1.00
Zr649  Zr    0.92767   0.46384   0.50000   0.00000  Uiso   1.00
Zr650  Zr    0.00081   0.54747   0.44855   0.00000  Uiso   1.00
Zr651  Zr    0.99921   0.54228   0.55676   0.00000  Uiso   1.00
Zr652  Zr    0.00090   0.45339   0.55160   0.00000  Uiso   1.00
Zr653  Zr    0.07263   0.53630   0.50018   0.00000  Uiso   1.00
Zr654  Zr    0.99927   0.45694   0.44337   0.00000  Uiso   1.00
O655   O     0.03064   0.55218   0.50163   0.00000  Uiso   1.00
O656   O     0.10417   0.58592   0.54297   0.00000  Uiso   1.00
O657   O     0.10416   0.51586   0.53984   0.00000  Uiso   1.00
O658   O     0.10406   0.58820   0.46040   0.00000  Uiso   1.00
O659   O     0.05936   0.59637   0.42702   0.00000  Uiso   1.00
O660   O     0.99879   0.53339   0.38025   0.00000  Uiso   1.00
O661   O     0.94111   0.53131   0.42048   0.00000  Uiso   1.00
O662   O     0.94031   0.41015   0.41975   0.00000  Uiso   1.00
O663   O     0.89598   0.48321   0.45887   0.00000  Uiso   1.00
O664   O     0.89560   0.41480   0.45733   0.00000  Uiso   1.00
O665   O     0.89557   0.48079   0.54264   0.00000  Uiso   1.00
O666   O     0.89605   0.41281   0.54101   0.00000  Uiso   1.00
O667   O     0.94119   0.40986   0.57949   0.00000  Uiso   1.00
O668   O     0.94024   0.53007   0.58028   0.00000  Uiso   1.00
O669   O     0.96927   0.48339   0.54475   0.00000  Uiso   1.00
O670   O     0.95984   0.53194   0.50178   0.00000  Uiso   1.00
O671   O     0.99948   0.59831   0.46191   0.00000  Uiso   1.00
O672   O     0.00160   0.59995   0.54122   0.00000  Uiso   1.00
O673   O     0.00166   0.40166   0.45893   0.00000  Uiso   1.00
O674   O     0.96927   0.48593   0.45528   0.00000  Uiso   1.00
O675   O     0.04033   0.52169   0.43733   0.00000  Uiso   1.00
O676   O     0.05917   0.46410   0.42618   0.00000  Uiso   1.00
O677   O     0.00056   0.46852   0.38118   0.00000  Uiso   1.00
O678   O     0.10417   0.51829   0.45736   0.00000  Uiso   1.00
O679   O     0.00049   0.53197   0.61897   0.00000  Uiso   1.00
O680   O     0.99875   0.46534   0.61984   0.00000  Uiso   1.00
O681   O     0.04032   0.51863   0.56288   0.00000  Uiso   1.00
O682   O     0.05920   0.59516   0.57413   0.00000  Uiso   1.00
O683   O     0.05955   0.46301   0.57322   0.00000  Uiso   1.00
O684   O     0.99961   0.40123   0.53827   0.00000  Uiso   1.00
O685   O     0.95991   0.42793   0.49828   0.00000  Uiso   1.00
O686   O     0.03070   0.47851   0.49858   0.00000  Uiso   1.00
C687   C     0.09372   0.49060   0.43254   0.00000  Uiso   1.00
C688   C     0.09387   0.60454   0.43423   0.00000  Uiso   1.00
C689   C     0.09376   0.60327   0.56770   0.00000  Uiso   1.00
C690   C     0.90568   0.50585   0.57042   0.00000  Uiso   1.00
C691   C     0.90651   0.39915   0.56978   0.00000  Uiso   1.00
C692   C     0.90574   0.39987   0.42955   0.00000  Uiso   1.00
C693   C     0.09406   0.48928   0.56592   0.00000  Uiso   1.00
C694   C     0.90642   0.50729   0.43004   0.00000  Uiso   1.00
H695   H     0.94332   0.40033   0.49867   0.00000  Uiso   1.00
H696   H     0.05646   0.52943   0.41363   0.00000  Uiso   1.00
H697   H     0.02726   0.61967   0.54922   0.00000  Uiso   1.00
H698   H     0.00062   0.60174   0.51077   0.00000  Uiso   1.00
H699   H     0.02146   0.40074   0.54979   0.00000  Uiso   1.00
H700   H     0.99949   0.49098   0.62256   0.00000  Uiso   1.00
H701   H     0.97849   0.53041   0.63263   0.00000  Uiso   1.00
H702   H     0.97317   0.44583   0.62823   0.00000  Uiso   1.00
H703   H     0.94323   0.54294   0.50133   0.00000  Uiso   1.00
H704   H     0.05646   0.52703   0.58658   0.00000  Uiso   1.00
H705   H     0.02128   0.62068   0.45036   0.00000  Uiso   1.00
H706   H     0.00072   0.39889   0.48938   0.00000  Uiso   1.00
H707   H     0.02731   0.40758   0.45097   0.00000  Uiso   1.00
H708   H     0.97321   0.52735   0.37186   0.00000  Uiso   1.00
H709   H     0.97856   0.44811   0.36752   0.00000  Uiso   1.00
H710   H     0.99956   0.50853   0.37756   0.00000  Uiso   1.00
C711   C     0.35385   0.51771   0.41686   0.00000  Uiso   1.00
C712   C     0.64478   0.48010   0.41505   0.00000  Uiso   1.00
C713   C     0.48248   0.64608   0.41650   0.00000  Uiso   1.00
C714   C     0.52007   0.35651   0.41396   0.00000  Uiso   1.00
C715   C     0.36469   0.48994   0.40938   0.00000  Uiso   1.00
C716   C     0.63253   0.50665   0.40657   0.00000  Uiso   1.00
C717   C     0.50980   0.63474   0.40838   0.00000  Uiso   1.00
C718   C     0.49279   0.36789   0.40573   0.00000  Uiso   1.00
C719   C     0.34760   0.46428   0.37708   0.00000  Uiso   1.00
C720   C     0.65081   0.53364   0.37554   0.00000  Uiso   1.00
C721   C     0.53638   0.65301   0.37702   0.00000  Uiso   1.00
C722   C     0.46607   0.34944   0.37452   0.00000  Uiso   1.00
C723   C     0.32060   0.46667   0.35250   0.00000  Uiso   1.00
C724   C     0.68007   0.53347   0.35299   0.00000  Uiso   1.00
C725   C     0.53505   0.68124   0.35368   0.00000  Uiso   1.00
C726   C     0.46722   0.32095   0.35145   0.00000  Uiso   1.00
C727   C     0.30961   0.49456   0.35968   0.00000  Uiso   1.00
C728   C     0.69191   0.50628   0.36059   0.00000  Uiso   1.00
C729   C     0.50721   0.69230   0.36107   0.00000  Uiso   1.00
C730   C     0.49497   0.30981   0.35905   0.00000  Uiso   1.00
C731   C     0.32666   0.51988   0.39249   0.00000  Uiso   1.00
C732   C     0.67407   0.48004   0.39249   0.00000  Uiso   1.00
C733   C     0.48133   0.67449   0.39328   0.00000  Uiso   1.00
C734   C     0.52103   0.32782   0.39110   0.00000  Uiso   1.00
H735   H     0.36733   0.53760   0.44177   0.00000  Uiso   1.00
H736   H     0.63069   0.45948   0.43932   0.00000  Uiso   1.00
H737   H     0.46211   0.63203   0.44092   0.00000  Uiso   1.00
H738   H     0.54045   0.37069   0.43839   0.00000  Uiso   1.00
H739   H     0.35633   0.44303   0.37114   0.00000  Uiso   1.00
H740   H     0.64164   0.55452   0.36948   0.00000  Uiso   1.00
H741   H     0.55750   0.64412   0.37078   0.00000  Uiso   1.00
H742   H     0.44453   0.35784   0.36864   0.00000  Uiso   1.00
H743   H     0.30792   0.44672   0.32738   0.00000  Uiso   1.00
H744   H     0.69380   0.55446   0.32889   0.00000  Uiso   1.00
H745   H     0.55562   0.69470   0.32922   0.00000  Uiso   1.00
H746   H     0.44642   0.30712   0.32726   0.00000  Uiso   1.00
H747   H     0.31865   0.54161   0.39876   0.00000  Uiso   1.00
H748   H     0.68305   0.45908   0.39937   0.00000  Uiso   1.00
H749   H     0.45979   0.68275   0.39991   0.00000  Uiso   1.00
H750   H     0.54250   0.31953   0.39786   0.00000  Uiso   1.00
C751   C     0.64369   0.48007   0.58562   0.00000  Uiso   1.00
C752   C     0.35345   0.51728   0.58338   0.00000  Uiso   1.00
C753   C     0.51983   0.35519   0.58465   0.00000  Uiso   1.00
C754   C     0.48246   0.64649   0.58293   0.00000  Uiso   1.00
C755   C     0.63235   0.50735   0.59397   0.00000  Uiso   1.00
C756   C     0.36478   0.48997   0.59162   0.00000  Uiso   1.00
C757   C     0.49335   0.36751   0.59331   0.00000  Uiso   1.00
C758   C     0.51025   0.63563   0.59056   0.00000  Uiso   1.00
C759   C     0.65080   0.53402   0.62521   0.00000  Uiso   1.00
C760   C     0.34633   0.46338   0.62292   0.00000  Uiso   1.00
C761   C     0.46630   0.34921   0.62428   0.00000  Uiso   1.00
C762   C     0.53599   0.65293   0.62280   0.00000  Uiso   1.00
C763   C     0.67930   0.53284   0.64819   0.00000  Uiso   1.00
C764   C     0.31802   0.46477   0.64611   0.00000  Uiso   1.00
C765   C     0.46639   0.31988   0.64674   0.00000  Uiso   1.00
C766   C     0.53355   0.67995   0.64723   0.00000  Uiso   1.00
C767   C     0.69038   0.50507   0.64053   0.00000  Uiso   1.00
C768   C     0.30704   0.49262   0.63866   0.00000  Uiso   1.00
C769   C     0.49351   0.30799   0.63902   0.00000  Uiso   1.00
C770   C     0.50557   0.69083   0.64002   0.00000  Uiso   1.00
C771   C     0.67237   0.47909   0.60844   0.00000  Uiso   1.00
C772   C     0.32495   0.51846   0.60642   0.00000  Uiso   1.00
C773   C     0.51981   0.32580   0.60715   0.00000  Uiso   1.00
C774   C     0.48028   0.67374   0.60718   0.00000  Uiso   1.00
H775   H     0.62945   0.45972   0.56119   0.00000  Uiso   1.00
H776   H     0.36764   0.53763   0.55896   0.00000  Uiso   1.00
H777   H     0.54044   0.36927   0.56040   0.00000  Uiso   1.00
H778   H     0.46253   0.63292   0.55802   0.00000  Uiso   1.00
H779   H     0.64240   0.55553   0.63106   0.00000  Uiso   1.00
H780   H     0.35514   0.44225   0.62931   0.00000  Uiso   1.00
H781   H     0.44550   0.35848   0.63043   0.00000  Uiso   1.00
H782   H     0.55726   0.64424   0.62886   0.00000  Uiso   1.00
H783   H     0.69314   0.55359   0.67238   0.00000  Uiso   1.00
H784   H     0.30446   0.44421   0.67060   0.00000  Uiso   1.00
H785   H     0.44541   0.30620   0.67078   0.00000  Uiso   1.00
H786   H     0.55348   0.69268   0.67232   0.00000  Uiso   1.00
H787   H     0.68072   0.45767   0.60172   0.00000  Uiso   1.00
H788   H     0.31671   0.54000   0.59967   0.00000  Uiso   1.00
H789   H     0.54074   0.31682   0.60021   0.00000  Uiso   1.00
H790   H     0.45850   0.68171   0.60081   0.00000  Uiso   1.00
Zr791  Zr    0.53619   0.46387   0.50000   0.00000  Uiso   1.00
Zr792  Zr    0.45248   0.45334   0.44855   0.00000  Uiso   1.00
Zr793  Zr    0.45769   0.45694   0.55676   0.00000  Uiso   1.00
Zr794  Zr    0.54666   0.54750   0.55160   0.00000  Uiso   1.00
Zr795  Zr    0.46368   0.53627   0.50018   0.00000  Uiso   1.00
Zr796  Zr    0.54308   0.54231   0.44337   0.00000  Uiso   1.00
O797   O     0.44779   0.47845   0.50163   0.00000  Uiso   1.00
O798   O     0.41404   0.51820   0.54297   0.00000  Uiso   1.00
O799   O     0.48413   0.58823   0.53984   0.00000  Uiso   1.00
O800   O     0.41176   0.51580   0.46040   0.00000  Uiso   1.00
O801   O     0.40357   0.46298   0.42702   0.00000  Uiso   1.00
O802   O     0.46658   0.46540   0.38025   0.00000  Uiso   1.00
O803   O     0.46864   0.40983   0.42048   0.00000  Uiso   1.00
O804   O     0.58991   0.53018   0.41975   0.00000  Uiso   1.00
O805   O     0.51677   0.41281   0.45887   0.00000  Uiso   1.00
O806   O     0.58526   0.48085   0.45733   0.00000  Uiso   1.00
O807   O     0.51920   0.41483   0.54264   0.00000  Uiso   1.00
O808   O     0.58724   0.48330   0.54101   0.00000  Uiso   1.00
O809   O     0.59021   0.53134   0.57949   0.00000  Uiso   1.00
O810   O     0.46991   0.41021   0.58028   0.00000  Uiso   1.00
O811   O     0.51663   0.48593   0.54475   0.00000  Uiso   1.00
O812   O     0.46802   0.42793   0.50178   0.00000  Uiso   1.00
O813   O     0.40161   0.40117   0.46191   0.00000  Uiso   1.00
O814   O     0.39996   0.40166   0.54122   0.00000  Uiso   1.00
O815   O     0.59842   0.59998   0.45893   0.00000  Uiso   1.00
O816   O     0.51409   0.48336   0.45528   0.00000  Uiso   1.00
O817   O     0.47829   0.51860   0.43733   0.00000  Uiso   1.00
O818   O     0.53595   0.59505   0.42618   0.00000  Uiso   1.00
O819   O     0.53149   0.53203   0.38118   0.00000  Uiso   1.00
O820   O     0.48172   0.58581   0.45736   0.00000  Uiso   1.00
O821   O     0.46801   0.46852   0.61897   0.00000  Uiso   1.00
O822   O     0.53467   0.53339   0.61984   0.00000  Uiso   1.00
O823   O     0.48137   0.52166   0.56288   0.00000  Uiso   1.00
O824   O     0.40475   0.46399   0.57413   0.00000  Uiso   1.00
O825   O     0.53702   0.59649   0.57322   0.00000  Uiso   1.00
O826   O     0.59886   0.59837   0.53827   0.00000  Uiso   1.00
O827   O     0.57210   0.53200   0.49828   0.00000  Uiso   1.00
O828   O     0.52153   0.55218   0.49858   0.00000  Uiso   1.00
C829   C     0.50944   0.60307   0.43254   0.00000  Uiso   1.00
C830   C     0.39538   0.48928   0.43423   0.00000  Uiso   1.00
C831   C     0.39668   0.49046   0.56770   0.00000  Uiso   1.00
C832   C     0.49412   0.39990   0.57042   0.00000  Uiso   1.00
C833   C     0.60093   0.50740   0.56978   0.00000  Uiso   1.00
C834   C     0.60018   0.50590   0.42955   0.00000  Uiso   1.00
C835   C     0.51077   0.60472   0.56592   0.00000  Uiso   1.00
C836   C     0.49267   0.39921   0.43004   0.00000  Uiso   1.00
H837   H     0.59976   0.54303   0.49867   0.00000  Uiso   1.00
H838   H     0.47054   0.52698   0.41363   0.00000  Uiso   1.00
H839   H     0.38023   0.40758   0.54922   0.00000  Uiso   1.00
H840   H     0.39815   0.39886   0.51077   0.00000  Uiso   1.00
H841   H     0.59934   0.62068   0.54979   0.00000  Uiso   1.00
H842   H     0.50901   0.50850   0.62256   0.00000  Uiso   1.00
H843   H     0.46954   0.44808   0.63263   0.00000  Uiso   1.00
H844   H     0.55422   0.52735   0.62823   0.00000  Uiso   1.00
H845   H     0.45701   0.40033   0.50133   0.00000  Uiso   1.00
H846   H     0.47296   0.52940   0.58658   0.00000  Uiso   1.00
H847   H     0.37923   0.40059   0.45036   0.00000  Uiso   1.00
H848   H     0.60119   0.60183   0.48938   0.00000  Uiso   1.00
H849   H     0.59252   0.61970   0.45097   0.00000  Uiso   1.00
H850   H     0.47261   0.44586   0.37186   0.00000  Uiso   1.00
H851   H     0.55192   0.53047   0.36752   0.00000  Uiso   1.00
H852   H     0.49146   0.49104   0.37756   0.00000  Uiso   1.00
C853   C     0.49231   0.21469   0.16119   0.00000  Uiso   1.00
C854   C     0.49061   0.21498   0.20479   0.00000  Uiso   1.00
C855   C     0.49481   0.18868   0.22790   0.00000  Uiso   1.00
H856   H     0.83115   0.49874   0.28589   0.00000  Uiso   1.00
H857   H     0.49566   0.24783   0.10920   0.00000  Uiso   1.00
C858   C     0.49473   0.24737   0.14141   0.00000  Uiso   1.00
C859   C     0.48925   0.24462   0.22651   0.00000  Uiso   1.00
C860   C     0.27761   0.49231   0.16119   0.00000  Uiso   1.00
C861   C     0.27565   0.49063   0.20479   0.00000  Uiso   1.00
C862   C     0.30611   0.49482   0.22790   0.00000  Uiso   1.00
H863   H     0.33240   0.83115   0.28589   0.00000  Uiso   1.00
H864   H     0.24784   0.49566   0.10920   0.00000  Uiso   1.00
C865   C     0.24738   0.49473   0.14141   0.00000  Uiso   1.00
C866   C     0.24461   0.48925   0.22651   0.00000  Uiso   1.00
C867   C     0.78530   0.27762   0.16119   0.00000  Uiso   1.00
C868   C     0.78500   0.27563   0.20479   0.00000  Uiso   1.00
C869   C     0.81131   0.30611   0.22790   0.00000  Uiso   1.00
H870   H     0.50126   0.33241   0.28589   0.00000  Uiso   1.00
H871   H     0.75218   0.24783   0.10920   0.00000  Uiso   1.00
C872   C     0.75265   0.24737   0.14141   0.00000  Uiso   1.00
C873   C     0.75538   0.24462   0.22651   0.00000  Uiso   1.00
C874   C     0.50769   0.78531   0.16119   0.00000  Uiso   1.00
C875   C     0.50939   0.78502   0.20479   0.00000  Uiso   1.00
C876   C     0.50519   0.81132   0.22790   0.00000  Uiso   1.00
H877   H     0.16885   0.50126   0.28589   0.00000  Uiso   1.00
H878   H     0.50434   0.75217   0.10920   0.00000  Uiso   1.00
C879   C     0.50527   0.75263   0.14141   0.00000  Uiso   1.00
C880   C     0.51075   0.75538   0.22651   0.00000  Uiso   1.00
C881   C     0.72239   0.50769   0.16119   0.00000  Uiso   1.00
C882   C     0.72435   0.50937   0.20479   0.00000  Uiso   1.00
C883   C     0.69389   0.50518   0.22790   0.00000  Uiso   1.00
H884   H     0.66760   0.16885   0.28589   0.00000  Uiso   1.00
H885   H     0.75216   0.50434   0.10920   0.00000  Uiso   1.00
C886   C     0.75262   0.50527   0.14141   0.00000  Uiso   1.00
C887   C     0.75539   0.51075   0.22651   0.00000  Uiso   1.00
C888   C     0.21470   0.72238   0.16119   0.00000  Uiso   1.00
C889   C     0.21500   0.72437   0.20479   0.00000  Uiso   1.00
C890   C     0.18869   0.69389   0.22790   0.00000  Uiso   1.00
H891   H     0.49874   0.66759   0.28589   0.00000  Uiso   1.00
H892   H     0.24782   0.75217   0.10920   0.00000  Uiso   1.00
C893   C     0.24735   0.75263   0.14141   0.00000  Uiso   1.00
C894   C     0.24462   0.75538   0.22651   0.00000  Uiso   1.00
C895   C     0.78531   0.50769   0.33881   0.00000  Uiso   1.00
C896   C     0.78502   0.50937   0.29521   0.00000  Uiso   1.00
C897   C     0.81130   0.50518   0.27210   0.00000  Uiso   1.00
H898   H     0.50125   0.16885   0.21411   0.00000  Uiso   1.00
H899   H     0.75216   0.50434   0.39080   0.00000  Uiso   1.00
C900   C     0.75265   0.50527   0.35859   0.00000  Uiso   1.00
C901   C     0.75537   0.51075   0.27349   0.00000  Uiso   1.00
C902   C     0.27761   0.78531   0.33881   0.00000  Uiso   1.00
C903   C     0.27564   0.78502   0.29521   0.00000  Uiso   1.00
C904   C     0.30612   0.81132   0.27210   0.00000  Uiso   1.00
H905   H     0.33240   0.50126   0.21411   0.00000  Uiso   1.00
H906   H     0.24782   0.75217   0.39080   0.00000  Uiso   1.00
C907   C     0.24738   0.75263   0.35859   0.00000  Uiso   1.00
C908   C     0.24462   0.75538   0.27349   0.00000  Uiso   1.00
C909   C     0.49230   0.27762   0.33881   0.00000  Uiso   1.00
C910   C     0.49061   0.27563   0.29521   0.00000  Uiso   1.00
C911   C     0.49480   0.30611   0.27210   0.00000  Uiso   1.00
H912   H     0.83115   0.33241   0.21411   0.00000  Uiso   1.00
H913   H     0.49566   0.24783   0.39080   0.00000  Uiso   1.00
C914   C     0.49473   0.24737   0.35859   0.00000  Uiso   1.00
C915   C     0.48925   0.24462   0.27349   0.00000  Uiso   1.00
C916   C     0.21469   0.49231   0.33881   0.00000  Uiso   1.00
C917   C     0.21498   0.49063   0.29521   0.00000  Uiso   1.00
C918   C     0.18870   0.49482   0.27210   0.00000  Uiso   1.00
H919   H     0.49875   0.83115   0.21411   0.00000  Uiso   1.00
H920   H     0.24784   0.49566   0.39080   0.00000  Uiso   1.00
C921   C     0.24735   0.49473   0.35859   0.00000  Uiso   1.00
C922   C     0.24463   0.48925   0.27349   0.00000  Uiso   1.00
C923   C     0.72239   0.21469   0.33881   0.00000  Uiso   1.00
C924   C     0.72436   0.21498   0.29521   0.00000  Uiso   1.00
C925   C     0.69388   0.18868   0.27210   0.00000  Uiso   1.00
H926   H     0.66760   0.49874   0.21411   0.00000  Uiso   1.00
H927   H     0.75218   0.24783   0.39080   0.00000  Uiso   1.00
C928   C     0.75262   0.24737   0.35859   0.00000  Uiso   1.00
C929   C     0.75538   0.24462   0.27349   0.00000  Uiso   1.00
C930   C     0.50770   0.72238   0.33881   0.00000  Uiso   1.00
C931   C     0.50939   0.72437   0.29521   0.00000  Uiso   1.00
C932   C     0.50520   0.69389   0.27210   0.00000  Uiso   1.00
H933   H     0.16885   0.66759   0.21411   0.00000  Uiso   1.00
H934   H     0.50434   0.75217   0.39080   0.00000  Uiso   1.00
C935   C     0.50527   0.75263   0.35859   0.00000  Uiso   1.00
C936   C     0.51075   0.75538   0.27349   0.00000  Uiso   1.00
C937   C     0.50769   0.78531   0.33881   0.00000  Uiso   1.00
C938   C     0.50939   0.78502   0.29521   0.00000  Uiso   1.00
C939   C     0.50519   0.81132   0.27210   0.00000  Uiso   1.00
H940   H     0.16885   0.50126   0.21411   0.00000  Uiso   1.00
C941   C     0.72239   0.50769   0.33881   0.00000  Uiso   1.00
C942   C     0.72435   0.50937   0.29521   0.00000  Uiso   1.00
C943   C     0.69389   0.50518   0.27210   0.00000  Uiso   1.00
H944   H     0.66760   0.16885   0.21411   0.00000  Uiso   1.00
C945   C     0.21470   0.72238   0.33881   0.00000  Uiso   1.00
C946   C     0.21500   0.72437   0.29521   0.00000  Uiso   1.00
C947   C     0.18869   0.69389   0.27210   0.00000  Uiso   1.00
H948   H     0.49874   0.66759   0.21411   0.00000  Uiso   1.00
C949   C     0.49231   0.21469   0.33881   0.00000  Uiso   1.00
C950   C     0.49061   0.21498   0.29521   0.00000  Uiso   1.00
C951   C     0.49481   0.18868   0.27210   0.00000  Uiso   1.00
H952   H     0.83115   0.49874   0.21411   0.00000  Uiso   1.00
C953   C     0.27761   0.49231   0.33881   0.00000  Uiso   1.00
C954   C     0.27565   0.49063   0.29521   0.00000  Uiso   1.00
C955   C     0.30611   0.49482   0.27210   0.00000  Uiso   1.00
H956   H     0.33240   0.83115   0.21411   0.00000  Uiso   1.00
C957   C     0.78530   0.27762   0.33881   0.00000  Uiso   1.00
C958   C     0.78500   0.27563   0.29521   0.00000  Uiso   1.00
C959   C     0.81131   0.30611   0.27210   0.00000  Uiso   1.00
H960   H     0.50126   0.33241   0.21411   0.00000  Uiso   1.00
C961   C     0.21469   0.49231   0.16119   0.00000  Uiso   1.00
C962   C     0.21498   0.49063   0.20479   0.00000  Uiso   1.00
C963   C     0.18870   0.49482   0.22790   0.00000  Uiso   1.00
H964   H     0.49875   0.83115   0.28589   0.00000  Uiso   1.00
C965   C     0.72239   0.21469   0.16119   0.00000  Uiso   1.00
C966   C     0.72436   0.21498   0.20479   0.00000  Uiso   1.00
C967   C     0.69388   0.18868   0.22790   0.00000  Uiso   1.00
H968   H     0.66760   0.49874   0.28589   0.00000  Uiso   1.00
C969   C     0.50770   0.72238   0.16119   0.00000  Uiso   1.00
C970   C     0.50939   0.72437   0.20479   0.00000  Uiso   1.00
C971   C     0.50520   0.69389   0.22790   0.00000  Uiso   1.00
H972   H     0.16885   0.66759   0.28589   0.00000  Uiso   1.00
C973   C     0.78531   0.50769   0.16119   0.00000  Uiso   1.00
C974   C     0.78502   0.50937   0.20479   0.00000  Uiso   1.00
C975   C     0.81130   0.50518   0.22790   0.00000  Uiso   1.00
H976   H     0.50125   0.16885   0.28589   0.00000  Uiso   1.00
C977   C     0.27761   0.78531   0.16119   0.00000  Uiso   1.00
C978   C     0.27564   0.78502   0.20479   0.00000  Uiso   1.00
C979   C     0.30612   0.81132   0.22790   0.00000  Uiso   1.00
H980   H     0.33240   0.50126   0.28589   0.00000  Uiso   1.00
C981   C     0.49230   0.27762   0.16119   0.00000  Uiso   1.00
C982   C     0.49061   0.27563   0.20479   0.00000  Uiso   1.00
C983   C     0.49480   0.30611   0.22790   0.00000  Uiso   1.00
H984   H     0.83115   0.33241   0.28589   0.00000  Uiso   1.00
C985   C     0.49231   0.21469   0.66119   0.00000  Uiso   1.00
C986   C     0.49061   0.21498   0.70479   0.00000  Uiso   1.00
C987   C     0.49481   0.18868   0.72790   0.00000  Uiso   1.00
H988   H     0.83115   0.49874   0.78589   0.00000  Uiso   1.00
H989   H     0.49566   0.24783   0.60920   0.00000  Uiso   1.00
C990   C     0.49473   0.24737   0.64141   0.00000  Uiso   1.00
C991   C     0.48925   0.24462   0.72651   0.00000  Uiso   1.00
C992   C     0.27761   0.49231   0.66119   0.00000  Uiso   1.00
C993   C     0.27565   0.49063   0.70479   0.00000  Uiso   1.00
C994   C     0.30611   0.49482   0.72790   0.00000  Uiso   1.00
H995   H     0.33240   0.83115   0.78589   0.00000  Uiso   1.00
H996   H     0.24784   0.49566   0.60920   0.00000  Uiso   1.00
C997   C     0.24738   0.49473   0.64141   0.00000  Uiso   1.00
C998   C     0.24461   0.48925   0.72651   0.00000  Uiso   1.00
C999   C     0.78530   0.27762   0.66119   0.00000  Uiso   1.00
C1000  C     0.78500   0.27563   0.70479   0.00000  Uiso   1.00
C1001  C     0.81131   0.30611   0.72790   0.00000  Uiso   1.00
H1002  H     0.50126   0.33241   0.78589   0.00000  Uiso   1.00
H1003  H     0.75218   0.24783   0.60920   0.00000  Uiso   1.00
C1004  C     0.75265   0.24737   0.64141   0.00000  Uiso   1.00
C1005  C     0.75538   0.24462   0.72651   0.00000  Uiso   1.00
C1006  C     0.50769   0.78531   0.66119   0.00000  Uiso   1.00
C1007  C     0.50939   0.78502   0.70479   0.00000  Uiso   1.00
C1008  C     0.50519   0.81132   0.72790   0.00000  Uiso   1.00
H1009  H     0.16885   0.50126   0.78589   0.00000  Uiso   1.00
H1010  H     0.50434   0.75217   0.60920   0.00000  Uiso   1.00
C1011  C     0.50527   0.75263   0.64141   0.00000  Uiso   1.00
C1012  C     0.51075   0.75538   0.72651   0.00000  Uiso   1.00
C1013  C     0.72239   0.50769   0.66119   0.00000  Uiso   1.00
C1014  C     0.72435   0.50937   0.70479   0.00000  Uiso   1.00
C1015  C     0.69389   0.50518   0.72790   0.00000  Uiso   1.00
H1016  H     0.66760   0.16885   0.78589   0.00000  Uiso   1.00
H1017  H     0.75216   0.50434   0.60920   0.00000  Uiso   1.00
C1018  C     0.75262   0.50527   0.64141   0.00000  Uiso   1.00
C1019  C     0.75539   0.51075   0.72651   0.00000  Uiso   1.00
C1020  C     0.21470   0.72238   0.66119   0.00000  Uiso   1.00
C1021  C     0.21500   0.72437   0.70479   0.00000  Uiso   1.00
C1022  C     0.18869   0.69389   0.72790   0.00000  Uiso   1.00
H1023  H     0.49874   0.66759   0.78589   0.00000  Uiso   1.00
H1024  H     0.24782   0.75217   0.60920   0.00000  Uiso   1.00
C1025  C     0.24735   0.75263   0.64141   0.00000  Uiso   1.00
C1026  C     0.24462   0.75538   0.72651   0.00000  Uiso   1.00
C1027  C     0.78531   0.50769   0.83881   0.00000  Uiso   1.00
C1028  C     0.78502   0.50937   0.79521   0.00000  Uiso   1.00
C1029  C     0.81130   0.50518   0.77210   0.00000  Uiso   1.00
H1030  H     0.50125   0.16885   0.71411   0.00000  Uiso   1.00
H1031  H     0.75216   0.50434   0.89080   0.00000  Uiso   1.00
C1032  C     0.75265   0.50527   0.85859   0.00000  Uiso   1.00
C1033  C     0.75537   0.51075   0.77349   0.00000  Uiso   1.00
C1034  C     0.27761   0.78531   0.83881   0.00000  Uiso   1.00
C1035  C     0.27564   0.78502   0.79521   0.00000  Uiso   1.00
C1036  C     0.30612   0.81132   0.77210   0.00000  Uiso   1.00
H1037  H     0.33240   0.50126   0.71411   0.00000  Uiso   1.00
H1038  H     0.24782   0.75217   0.89080   0.00000  Uiso   1.00
C1039  C     0.24738   0.75263   0.85859   0.00000  Uiso   1.00
C1040  C     0.24462   0.75538   0.77349   0.00000  Uiso   1.00
C1041  C     0.49230   0.27762   0.83881   0.00000  Uiso   1.00
C1042  C     0.49061   0.27563   0.79521   0.00000  Uiso   1.00
C1043  C     0.49480   0.30611   0.77210   0.00000  Uiso   1.00
H1044  H     0.83115   0.33241   0.71411   0.00000  Uiso   1.00
H1045  H     0.49566   0.24783   0.89080   0.00000  Uiso   1.00
C1046  C     0.49473   0.24737   0.85859   0.00000  Uiso   1.00
C1047  C     0.48925   0.24462   0.77349   0.00000  Uiso   1.00
C1048  C     0.21469   0.49231   0.83881   0.00000  Uiso   1.00
C1049  C     0.21498   0.49063   0.79521   0.00000  Uiso   1.00
C1050  C     0.18870   0.49482   0.77210   0.00000  Uiso   1.00
H1051  H     0.49875   0.83115   0.71411   0.00000  Uiso   1.00
H1052  H     0.24784   0.49566   0.89080   0.00000  Uiso   1.00
C1053  C     0.24735   0.49473   0.85859   0.00000  Uiso   1.00
C1054  C     0.24463   0.48925   0.77349   0.00000  Uiso   1.00
C1055  C     0.72239   0.21469   0.83881   0.00000  Uiso   1.00
C1056  C     0.72436   0.21498   0.79521   0.00000  Uiso   1.00
C1057  C     0.69388   0.18868   0.77210   0.00000  Uiso   1.00
H1058  H     0.66760   0.49874   0.71411   0.00000  Uiso   1.00
H1059  H     0.75218   0.24783   0.89080   0.00000  Uiso   1.00
C1060  C     0.75262   0.24737   0.85859   0.00000  Uiso   1.00
C1061  C     0.75538   0.24462   0.77349   0.00000  Uiso   1.00
C1062  C     0.50770   0.72238   0.83881   0.00000  Uiso   1.00
C1063  C     0.50939   0.72437   0.79521   0.00000  Uiso   1.00
C1064  C     0.50520   0.69389   0.77210   0.00000  Uiso   1.00
H1065  H     0.16885   0.66759   0.71411   0.00000  Uiso   1.00
H1066  H     0.50434   0.75217   0.89080   0.00000  Uiso   1.00
C1067  C     0.50527   0.75263   0.85859   0.00000  Uiso   1.00
C1068  C     0.51075   0.75538   0.77349   0.00000  Uiso   1.00
C1069  C     0.50769   0.78531   0.83881   0.00000  Uiso   1.00
C1070  C     0.50939   0.78502   0.79521   0.00000  Uiso   1.00
C1071  C     0.50519   0.81132   0.77210   0.00000  Uiso   1.00
H1072  H     0.16885   0.50126   0.71411   0.00000  Uiso   1.00
C1073  C     0.72239   0.50769   0.83881   0.00000  Uiso   1.00
C1074  C     0.72435   0.50937   0.79521   0.00000  Uiso   1.00
C1075  C     0.69389   0.50518   0.77210   0.00000  Uiso   1.00
H1076  H     0.66760   0.16885   0.71411   0.00000  Uiso   1.00
C1077  C     0.21470   0.72238   0.83881   0.00000  Uiso   1.00
C1078  C     0.21500   0.72437   0.79521   0.00000  Uiso   1.00
C1079  C     0.18869   0.69389   0.77210   0.00000  Uiso   1.00
H1080  H     0.49874   0.66759   0.71411   0.00000  Uiso   1.00
C1081  C     0.49231   0.21469   0.83881   0.00000  Uiso   1.00
C1082  C     0.49061   0.21498   0.79521   0.00000  Uiso   1.00
C1083  C     0.49481   0.18868   0.77210   0.00000  Uiso   1.00
H1084  H     0.83115   0.49874   0.71411   0.00000  Uiso   1.00
C1085  C     0.27761   0.49231   0.83881   0.00000  Uiso   1.00
C1086  C     0.27565   0.49063   0.79521   0.00000  Uiso   1.00
C1087  C     0.30611   0.49482   0.77210   0.00000  Uiso   1.00
H1088  H     0.33240   0.83115   0.71411   0.00000  Uiso   1.00
C1089  C     0.78530   0.27762   0.83881   0.00000  Uiso   1.00
C1090  C     0.78500   0.27563   0.79521   0.00000  Uiso   1.00
C1091  C     0.81131   0.30611   0.77210   0.00000  Uiso   1.00
H1092  H     0.50126   0.33241   0.71411   0.00000  Uiso   1.00
C1093  C     0.21469   0.49231   0.66119   0.00000  Uiso   1.00
C1094  C     0.21498   0.49063   0.70479   0.00000  Uiso   1.00
C1095  C     0.18870   0.49482   0.72790   0.00000  Uiso   1.00
H1096  H     0.49875   0.83115   0.78589   0.00000  Uiso   1.00
C1097  C     0.72239   0.21469   0.66119   0.00000  Uiso   1.00
C1098  C     0.72436   0.21498   0.70479   0.00000  Uiso   1.00
C1099  C     0.69388   0.18868   0.72790   0.00000  Uiso   1.00
H1100  H     0.66760   0.49874   0.78589   0.00000  Uiso   1.00
C1101  C     0.50770   0.72238   0.66119   0.00000  Uiso   1.00
C1102  C     0.50939   0.72437   0.70479   0.00000  Uiso   1.00
C1103  C     0.50520   0.69389   0.72790   0.00000  Uiso   1.00
H1104  H     0.16885   0.66759   0.78589   0.00000  Uiso   1.00
C1105  C     0.78531   0.50769   0.66119   0.00000  Uiso   1.00
C1106  C     0.78502   0.50937   0.70479   0.00000  Uiso   1.00
C1107  C     0.81130   0.50518   0.72790   0.00000  Uiso   1.00
H1108  H     0.50125   0.16885   0.78589   0.00000  Uiso   1.00
C1109  C     0.27761   0.78531   0.66119   0.00000  Uiso   1.00
C1110  C     0.27564   0.78502   0.70479   0.00000  Uiso   1.00
C1111  C     0.30612   0.81132   0.72790   0.00000  Uiso   1.00
H1112  H     0.33240   0.50126   0.78589   0.00000  Uiso   1.00
C1113  C     0.49230   0.27762   0.66119   0.00000  Uiso   1.00
C1114  C     0.49061   0.27563   0.70479   0.00000  Uiso   1.00
C1115  C     0.49480   0.30611   0.72790   0.00000  Uiso   1.00
H1116  H     0.83115   0.33241   0.78589   0.00000  Uiso   1.00
loop_
_geom_bond_atom_site_label_1
_geom_bond_atom_site_label_2
_geom_bond_distance
_geom_bond_site_symmetry_2
_ccdc_geom_bond_type
C1     C5      1.402   .     A
C1     C21     1.391   .     A
C1     H25     1.085   .     S
C2     C6      1.403   .     A
C2     C22     1.390   .     A
C2     H26     1.087   .     S
C3     C7      1.404   .     A
C3     C23     1.392   .     A
C3     H27     1.086   .     S
C4     C8      1.402   .     A
C4     C24     1.391   .     A
C4     H28     1.086   .     S
C5     C9      1.402   .     A
C5     C120    1.489   .     S
C6     C10     1.403   .     A
C6     C124    1.488   .     S
C7     C11     1.403   .     A
C7     C119    1.492   .     S
C8     C12     1.402   .     A
C8     C126    1.492   .     S
C9     C13     1.393   .     A
C9     H29     1.087   .     S
C10    C14     1.392   .     A
C10    H30     1.085   .     S
C11    C15     1.392   .     A
C11    H31     1.087   .     S
C12    C16     1.393   .     A
C12    H32     1.087   .     S
C13    C17     1.409   .     A
C13    H33     1.087   .     S
C14    C18     1.408   .     A
C14    H34     1.088   .     S
C15    C19     1.410   .     A
C15    H35     1.086   .     S
C16    C20     1.409   .     A
C16    H36     1.086   .     S
C17    C21     1.408   .     A
C17    C1069   1.422   .     S
C18    C22     1.408   .     A
C18    C1081   1.398   .     S
C19    C23     1.407   .     A
C19    C1034   1.401   .     S
C20    C24     1.408   .     A
C20    C1055   1.405   .     S
C21    H37     1.087   .     S
C22    H38     1.087   .     S
C23    H39     1.088   .     S
C24    H40     1.086   .     S
C41    C45     1.402   .     A
C41    C61     1.392   .     A
C41    H65     1.086   .     S
C42    C46     1.404   .     A
C42    C62     1.392   .     A
C42    H66     1.085   .     S
C43    C47     1.403   .     A
C43    C63     1.391   .     A
C43    H67     1.085   .     S
C44    C48     1.404   .     A
C44    C64     1.391   .     A
C44    H68     1.085   .     S
C45    C49     1.403   .     A
C45    C123    1.491   .     S
C46    C50     1.403   .     A
C46    C121    1.493   .     S
C47    C51     1.402   .     A
C47    C122    1.489   .     S
C48    C52     1.403   .     A
C48    C125    1.490   .     S
C49    C53     1.392   .     A
C49    H69     1.085   .     S
C50    C54     1.391   .     A
C50    H70     1.088   .     S
C51    C55     1.391   .     A
C51    H71     1.086   .     S
C52    C56     1.392   .     A
C52    H72     1.087   .     S
C53    C57     1.408   .     A
C53    H73     1.086   .     S
C54    C58     1.410   .     A
C54    H74     1.088   .     S
C55    C59     1.408   .     A
C55    H75     1.086   .     S
C56    C60     1.409   .     A
C56    H76     1.087   .     S
C57    C61     1.407   .     A
C57    C853    1.414   .     S
C58    C62     1.408   .     A
C58    C874    1.393   .     S
C59    C63     1.407   .     A
C59    C965    1.397   .     S
C60    C64     1.408   .     A
C60    C977    1.406   .     S
C61    H77     1.086   .     S
C62    H78     1.088   .     S
C63    H79     1.087   .     S
C64    H80     1.088   .     S
Zr81   O95     2.246   .     S
Zr81   O96     2.231   .     S
Zr81   O97     2.231   1_556 S
Zr81   O98     2.243   1_556 S
Zr81   O101    2.069   1_556 S
Zr81   O102    2.361   1_556 S
Zr81   O106    2.068   .     S
Zr81   O117    2.362   .     S
Zr82   O87     2.081   1_556 S
Zr82   O91     2.287   .     S
Zr82   O92     2.326   1_565 S
Zr82   O93     2.331   1_565 S
Zr82   O102    2.273   1_566 S
Zr82   O103    2.108   1_565 S
Zr82   O106    2.144   1_565 S
Zr82   O107    2.308   .     S
Zr83   O87     2.140   1_545 S
Zr83   O100    2.292   .     S
Zr83   O101    2.079   .     S
Zr83   O102    2.307   .     S
Zr83   O104    2.318   1_545 S
Zr83   O111    2.109   1_545 S
Zr83   O113    2.279   1_545 S
Zr83   O114    2.341   1_545 S
Zr84   O99     2.330   1_565 S
Zr84   O101    2.146   1_565 S
Zr84   O112    2.324   1_565 S
Zr84   O113    2.307   .     S
Zr84   O115    2.292   .     S
Zr84   O116    2.107   1_565 S
Zr84   O117    2.275   1_564 S
Zr84   O118    2.079   1_554 S
Zr85   O87     2.070   .     S
Zr85   O88     2.245   .     S
Zr85   O89     2.240   .     S
Zr85   O90     2.241   1_554 S
Zr85   O107    2.366   1_554 S
Zr85   O110    2.244   1_554 S
Zr85   O113    2.361   .     S
Zr85   O118    2.069   1_554 S
Zr86   O94     2.294   .     S
Zr86   O105    2.320   1_545 S
Zr86   O106    2.080   .     S
Zr86   O107    2.278   1_545 S
Zr86   O108    2.336   1_545 S
Zr86   O109    2.108   1_545 S
Zr86   O117    2.305   .     S
Zr86   O118    2.143   1_545 S
O87    Zr83    2.140   1_565 S
O87    Zr82    2.081   1_554 S
O88    C121    1.271   .     A
O89    C125    1.270   .     A
O90    Zr85    2.241   1_556 S
O90    C120    1.269   .     A
O91    C120    1.272   .     A
O92    Zr82    2.326   1_545 S
O92    H140    0.967   .     S
O92    H142    1.014   .     S
O93    Zr82    2.331   1_545 S
O93    C126    1.271   .     A
O94    C124    1.272   .     A
O95    C126    1.271   .     A
O96    C124    1.269   .     A
O97    Zr81    2.231   1_554 S
O97    C122    1.269   .     A
O98    Zr81    2.243   1_554 S
O98    C123    1.270   .     A
O99    Zr84    2.330   1_545 S
O99    C123    1.271   .     A
O100   C122    1.271   .     A
O101   Zr81    2.069   1_554 S
O101   Zr84    2.146   1_545 S
O102   Zr81    2.361   1_554 S
O102   Zr82    2.273   1_544 S
O102   H135    0.963   .     S
O103   Zr82    2.108   1_545 S
O103   H137    0.963   1_545 S
O104   Zr83    2.318   1_565 S
O104   H129    0.966   .     S
O104   H130    1.015   .     S
O105   Zr86    2.320   1_565 S
O105   H138    1.015   .     S
O105   H139    0.966   .     S
O106   Zr82    2.144   1_545 S
O107   Zr86    2.278   1_565 S
O107   Zr85    2.366   1_556 S
O107   H128    0.964   .     S
O108   Zr86    2.336   1_565 S
O108   C119    1.269   .     A
O109   Zr86    2.108   1_565 S
O109   H141    0.963   1_565 S
O110   Zr85    2.244   1_556 S
O110   C119    1.271   .     A
O111   Zr83    2.109   1_565 S
O111   H133    0.963   1_565 S
O112   Zr84    2.324   1_545 S
O112   H132    1.015   .     S
O112   H134    0.967   .     S
O113   Zr83    2.279   1_565 S
O113   H136    0.964   .     S
O114   Zr83    2.341   1_565 S
O114   C121    1.269   .     A
O115   C125    1.272   .     A
O116   Zr84    2.107   1_545 S
O116   H131    0.962   1_545 S
O117   Zr84    2.275   1_546 S
O117   H127    0.963   .     S
O118   Zr84    2.079   1_556 S
O118   Zr85    2.069   1_556 S
O118   Zr86    2.143   1_565 S
H131   O116    0.962   1_565 S
H133   O111    0.963   1_545 S
H137   O103    0.963   1_565 S
H141   O109    0.963   1_545 S
C143   C147    1.401   .     A
C143   C163    1.392   .     A
C143   H167    1.085   .     S
C144   C148    1.403   .     A
C144   C164    1.390   .     A
C144   H168    1.087   .     S
C145   C149    1.403   .     A
C145   C165    1.391   .     A
C145   H169    1.086   .     S
C146   C150    1.403   .     A
C146   C166    1.392   .     A
C146   H170    1.086   .     S
C147   C151    1.402   .     A
C147   C262    1.489   .     S
C148   C152    1.403   .     A
C148   C266    1.488   .     S
C149   C153    1.403   .     A
C149   C261    1.492   .     S
C150   C154    1.402   .     A
C150   C268    1.492   .     S
C151   C155    1.393   .     A
C151   H171    1.087   .     S
C152   C156    1.391   .     A
C152   H172    1.085   .     S
C153   C157    1.392   .     A
C153   H173    1.087   .     S
C154   C158    1.393   .     A
C154   H174    1.087   .     S
C155   C159    1.409   .     A
C155   H175    1.087   .     S
C156   C160    1.408   .     A
C156   H176    1.088   .     S
C157   C161    1.410   .     A
C157   H177    1.087   .     S
C158   C162    1.410   .     A
C158   H178    1.086   .     S
C159   C163    1.408   .     A
C159   C1089   1.420   .     S
C160   C164    1.408   .     A
C160   C1077   1.396   .     S
C161   C165    1.407   .     A
C161   C1027   1.398   .     S
C162   C166    1.408   .     A
C162   C1048   1.403   .     S
C163   H179    1.087   .     S
C164   H180    1.089   .     S
C165   H181    1.087   .     S
C166   H182    1.087   .     S
C183   C187    1.403   .     A
C183   C203    1.391   .     A
C183   H207    1.086   .     S
C184   C188    1.403   .     A
C184   C204    1.392   .     A
C184   H208    1.085   .     S
C185   C189    1.403   .     A
C185   C205    1.391   .     A
C185   H209    1.085   .     S
C186   C190    1.403   .     A
C186   C206    1.391   .     A
C186   H210    1.085   .     S
C187   C191    1.403   .     A
C187   C265    1.491   .     S
C188   C192    1.403   .     A
C188   C263    1.492   .     S
C189   C193    1.403   .     A
C189   C264    1.488   .     S
C190   C194    1.403   .     A
C190   C267    1.490   .     S
C191   C195    1.391   .     A
C191   H211    1.086   .     S
C192   C196    1.392   .     A
C192   H212    1.087   .     S
C193   C197    1.391   .     A
C193   H213    1.085   .     S
C194   C198    1.393   .     A
C194   H214    1.087   .     S
C195   C199    1.409   .     A
C195   H215    1.086   .     S
C196   C200    1.409   .     A
C196   H216    1.088   .     S
C197   C201    1.409   .     A
C197   H217    1.086   .     S
C198   C202    1.408   .     A
C198   H218    1.087   .     S
C199   C203    1.407   .     A
C199   C888    1.411   .     S
C200   C204    1.409   .     A
C200   C867    1.391   .     S
C201   C205    1.407   .     A
C201   C961    1.394   .     S
C202   C206    1.409   .     A
C202   C973    1.403   .     S
C203   H219    1.087   .     S
C204   H220    1.087   .     S
C205   H221    1.087   .     S
C206   H222    1.087   .     S
Zr223  O237    2.246   .     S
Zr223  O238    2.231   .     S
Zr223  O239    2.230   1_556 S
Zr223  O240    2.244   1_556 S
Zr223  O243    2.068   1_556 S
Zr223  O244    2.361   1_556 S
Zr223  O248    2.068   .     S
Zr223  O259    2.361   .     S
Zr224  O229    2.081   1_556 S
Zr224  O233    2.288   .     S
Zr224  O234    2.326   1_655 S
Zr224  O235    2.332   1_655 S
Zr224  O244    2.273   1_656 S
Zr224  O245    2.108   1_655 S
Zr224  O248    2.144   1_655 S
Zr224  O249    2.308   .     S
Zr225  O229    2.140   1_455 S
Zr225  O242    2.292   .     S
Zr225  O243    2.079   .     S
Zr225  O244    2.307   .     S
Zr225  O246    2.319   1_455 S
Zr225  O253    2.109   1_455 S
Zr225  O255    2.278   1_455 S
Zr225  O256    2.342   1_455 S
Zr226  O241    2.330   1_655 S
Zr226  O243    2.146   1_655 S
Zr226  O254    2.323   1_655 S
Zr226  O255    2.307   .     S
Zr226  O257    2.293   .     S
Zr226  O258    2.108   1_655 S
Zr226  O259    2.275   1_654 S
Zr226  O260    2.079   1_554 S
Zr227  O229    2.071   .     S
Zr227  O230    2.245   .     S
Zr227  O231    2.239   .     S
Zr227  O232    2.241   1_554 S
Zr227  O249    2.366   1_554 S
Zr227  O252    2.244   1_554 S
Zr227  O255    2.361   .     S
Zr227  O260    2.069   1_554 S
Zr228  O236    2.293   .     S
Zr228  O247    2.319   1_455 S
Zr228  O248    2.081   .     S
Zr228  O249    2.278   1_455 S
Zr228  O250    2.335   1_455 S
Zr228  O251    2.108   1_455 S
Zr228  O259    2.304   .     S
Zr228  O260    2.143   1_455 S
O229   Zr225   2.140   1_655 S
O229   Zr224   2.081   1_554 S
O230   C263    1.271   .     A
O231   C267    1.271   .     A
O232   Zr227   2.241   1_556 S
O232   C262    1.270   .     A
O233   C262    1.271   .     A
O234   Zr224   2.326   1_455 S
O234   H282    0.967   .     S
O234   H284    1.014   .     S
O235   Zr224   2.332   1_455 S
O235   C268    1.270   .     A
O236   C266    1.271   .     A
O237   C268    1.270   .     A
O238   C266    1.269   .     A
O239   Zr223   2.230   1_554 S
O239   C264    1.269   .     A
O240   Zr223   2.244   1_554 S
O240   C265    1.269   .     A
O241   Zr226   2.330   1_455 S
O241   C265    1.271   .     A
O242   C264    1.271   .     A
O243   Zr223   2.068   1_554 S
O243   Zr226   2.146   1_455 S
O244   Zr223   2.361   1_554 S
O244   Zr224   2.273   1_454 S
O244   H277    0.963   .     S
O245   Zr224   2.108   1_455 S
O245   H279    0.963   1_455 S
O246   Zr225   2.319   1_655 S
O246   H271    0.967   .     S
O246   H272    1.015   .     S
O247   Zr228   2.319   1_655 S
O247   H280    1.015   .     S
O247   H281    0.967   .     S
O248   Zr224   2.144   1_455 S
O249   Zr228   2.278   1_655 S
O249   Zr227   2.366   1_556 S
O249   H270    0.964   .     S
O250   Zr228   2.335   1_655 S
O250   C261    1.269   .     A
O251   Zr228   2.108   1_655 S
O251   H283    0.963   1_655 S
O252   Zr227   2.244   1_556 S
O252   C261    1.271   .     A
O253   Zr225   2.109   1_655 S
O253   H275    0.963   1_655 S
O254   Zr226   2.323   1_455 S
O254   H274    1.015   .     S
O254   H276    0.966   .     S
O255   Zr225   2.278   1_655 S
O255   H278    0.964   .     S
O256   Zr225   2.342   1_655 S
O256   C263    1.269   .     A
O257   C267    1.271   .     A
O258   Zr226   2.108   1_455 S
O258   H273    0.962   1_455 S
O259   Zr226   2.275   1_456 S
O259   H269    0.964   .     S
O260   Zr226   2.079   1_556 S
O260   Zr227   2.069   1_556 S
O260   Zr228   2.143   1_655 S
H273   O258    0.962   1_655 S
H275   O253    0.963   1_455 S
H279   O245    0.963   1_655 S
H283   O251    0.963   1_455 S
C285   C289    1.402   .     A
C285   C305    1.392   .     A
C285   H309    1.085   .     S
C286   C290    1.403   .     A
C286   C306    1.390   .     A
C286   H310    1.086   .     S
C287   C291    1.403   .     A
C287   C307    1.392   .     A
C287   H311    1.086   .     S
C288   C292    1.402   .     A
C288   C308    1.391   .     A
C288   H312    1.086   .     S
C289   C293    1.402   .     A
C289   C404    1.489   .     S
C290   C294    1.403   .     A
C290   C408    1.489   .     S
C291   C295    1.403   .     A
C291   C403    1.492   .     S
C292   C296    1.402   .     A
C292   C410    1.492   .     S
C293   C297    1.393   .     A
C293   H313    1.086   .     S
C294   C298    1.391   .     A
C294   H314    1.085   .     S
C295   C299    1.392   .     A
C295   H315    1.086   .     S
C296   C300    1.393   .     A
C296   H316    1.087   .     S
C297   C301    1.408   .     A
C297   H317    1.087   .     S
C298   C302    1.408   .     A
C298   H318    1.088   .     S
C299   C303    1.410   .     A
C299   H319    1.087   .     S
C300   C304    1.410   .     A
C300   H320    1.086   .     S
C301   C305    1.408   .     A
C301   C981    1.423   .     S
C302   C306    1.408   .     A
C302   C969    1.398   .     S
C303   C307    1.407   .     A
C303   C881    1.398   .     S
C304   C308    1.408   .     A
C304   C860    1.402   .     S
C305   H321    1.086   .     S
C306   H322    1.088   .     S
C307   H323    1.088   .     S
C308   H324    1.087   .     S
C325   C329    1.402   .     A
C325   C345    1.391   .     A
C325   H349    1.086   .     S
C326   C330    1.403   .     A
C326   C346    1.392   .     A
C326   H350    1.085   .     S
C327   C331    1.403   .     A
C327   C347    1.392   .     A
C327   H351    1.085   .     S
C328   C332    1.403   .     A
C328   C348    1.391   .     A
C328   H352    1.085   .     S
C329   C333    1.403   .     A
C329   C407    1.491   .     S
C330   C334    1.404   .     A
C330   C405    1.493   .     S
C331   C335    1.402   .     A
C331   C406    1.489   .     S
C332   C336    1.403   .     A
C332   C409    1.491   .     S
C333   C337    1.391   .     A
C333   H353    1.086   .     S
C334   C338    1.391   .     A
C334   H354    1.087   .     S
C335   C339    1.391   .     A
C335   H355    1.085   .     S
C336   C340    1.393   .     A
C336   H356    1.085   .     S
C337   C341    1.409   .     A
C337   H357    1.086   .     S
C338   C342    1.409   .     A
C338   H358    1.088   .     S
C339   C343    1.409   .     A
C339   H359    1.086   .     S
C340   C344    1.409   .     A
C340   H360    1.087   .     S
C341   C345    1.408   .     A
C341   C1062   1.414   .     S
C342   C346    1.408   .     A
C342   C1041   1.394   .     S
C343   C347    1.407   .     A
C343   C1085   1.394   .     S
C344   C348    1.408   .     A
C344   C1073   1.403   .     S
C345   H361    1.087   .     S
C346   H362    1.087   .     S
C347   H363    1.087   .     S
C348   H364    1.088   .     S
Zr365  O379    2.247   1_556 S
Zr365  O380    2.231   1_556 S
Zr365  O381    2.231   .     S
Zr365  O382    2.243   .     S
Zr365  O385    2.069   .     S
Zr365  O386    2.362   .     S
Zr365  O390    2.068   1_556 S
Zr365  O401    2.361   1_556 S
Zr366  O371    2.081   1_554 S
Zr366  O375    2.286   .     S
Zr366  O376    2.326   .     S
Zr366  O377    2.332   .     S
Zr366  O386    2.273   1_554 S
Zr366  O387    2.108   .     S
Zr366  O390    2.145   .     S
Zr366  O391    2.307   .     S
Zr367  O371    2.140   .     S
Zr367  O384    2.293   .     S
Zr367  O385    2.080   .     S
Zr367  O386    2.307   .     S
Zr367  O388    2.317   .     S
Zr367  O395    2.109   .     S
Zr367  O397    2.278   .     S
Zr367  O398    2.341   .     S
Zr368  O383    2.329   .     S
Zr368  O385    2.147   .     S
Zr368  O396    2.324   .     S
Zr368  O397    2.307   .     S
Zr368  O399    2.292   .     S
Zr368  O400    2.107   .     S
Zr368  O401    2.275   1_556 S
Zr368  O402    2.079   1_556 S
Zr369  O371    2.070   .     S
Zr369  O372    2.245   .     S
Zr369  O373    2.240   .     S
Zr369  O374    2.241   1_556 S
Zr369  O391    2.366   1_556 S
Zr369  O394    2.244   1_556 S
Zr369  O397    2.361   .     S
Zr369  O402    2.069   1_556 S
Zr370  O378    2.293   .     S
Zr370  O389    2.319   .     S
Zr370  O390    2.080   .     S
Zr370  O391    2.278   .     S
Zr370  O392    2.336   .     S
Zr370  O393    2.108   .     S
Zr370  O401    2.304   .     S
Zr370  O402    2.143   .     S
O371   Zr366   2.081   1_556 S
O372   C405    1.271   .     A
O373   C409    1.270   .     A
O374   Zr369   2.241   1_554 S
O374   C404    1.270   .     A
O375   C404    1.271   .     A
O376   H424    0.967   .     S
O376   H426    1.014   .     S
O377   C410    1.270   .     A
O378   C408    1.271   .     A
O379   Zr365   2.247   1_554 S
O379   C410    1.271   .     A
O380   Zr365   2.231   1_554 S
O380   C408    1.269   .     A
O381   C406    1.269   .     A
O382   C407    1.270   .     A
O383   C407    1.271   .     A
O384   C406    1.270   .     A
O386   Zr366   2.273   1_556 S
O386   H419    0.963   .     S
O387   H421    0.963   .     S
O388   H413    0.966   .     S
O388   H414    1.015   .     S
O389   H422    1.015   .     S
O389   H423    0.967   .     S
O390   Zr365   2.068   1_554 S
O391   Zr369   2.366   1_554 S
O391   H412    0.964   .     S
O392   C403    1.269   .     A
O393   H425    0.963   .     S
O394   Zr369   2.244   1_554 S
O394   C403    1.271   .     A
O395   H417    0.963   .     S
O396   H416    1.014   .     S
O396   H418    0.966   .     S
O397   H420    0.964   .     S
O398   C405    1.269   .     A
O399   C409    1.271   .     A
O400   H415    0.962   .     S
O401   Zr365   2.361   1_554 S
O401   Zr368   2.275   1_554 S
O401   H411    0.964   .     S
O402   Zr368   2.079   1_554 S
O402   Zr369   2.069   1_554 S
C427   C431    1.402   .     A
C427   C447    1.391   .     A
C427   H451    1.085   .     S
C428   C432    1.403   .     A
C428   C448    1.390   .     A
C428   H452    1.087   .     S
C429   C433    1.404   .     A
C429   C449    1.392   .     A
C429   H453    1.086   .     S
C430   C434    1.402   .     A
C430   C450    1.391   .     A
C430   H454    1.086   .     S
C431   C435    1.402   .     A
C431   C546    1.489   .     S
C432   C436    1.403   .     A
C432   C550    1.488   .     S
C433   C437    1.403   .     A
C433   C545    1.492   .     S
C434   C438    1.402   .     A
C434   C552    1.492   .     S
C435   C439    1.393   .     A
C435   H455    1.087   .     S
C436   C440    1.392   .     A
C436   H456    1.085   .     S
C437   C441    1.392   .     A
C437   H457    1.087   .     S
C438   C442    1.393   .     A
C438   H458    1.087   .     S
C439   C443    1.409   .     A
C439   H459    1.087   .     S
C440   C444    1.408   .     A
C440   H460    1.088   .     S
C441   C445    1.410   .     A
C441   H461    1.086   .     S
C442   C446    1.409   .     A
C442   H462    1.086   .     S
C443   C447    1.408   .     A
C443   C937    1.422   .     S
C444   C448    1.408   .     A
C444   C949    1.398   .     S
C445   C449    1.407   .     A
C445   C902    1.401   .     S
C446   C450    1.408   .     A
C446   C923    1.405   .     S
C447   H463    1.087   .     S
C448   H464    1.087   .     S
C449   H465    1.088   .     S
C450   H466    1.086   .     S
C467   C471    1.402   .     A
C467   C487    1.392   .     A
C467   H491    1.086   .     S
C468   C472    1.403   .     A
C468   C488    1.392   .     A
C468   H492    1.085   .     S
C469   C473    1.403   .     A
C469   C489    1.391   .     A
C469   H493    1.085   .     S
C470   C474    1.404   .     A
C470   C490    1.391   .     A
C470   H494    1.085   .     S
C471   C475    1.403   .     A
C471   C549    1.491   .     S
C472   C476    1.403   .     A
C472   C547    1.493   .     S
C473   C477    1.402   .     A
C473   C548    1.489   .     S
C474   C478    1.403   .     A
C474   C551    1.490   .     S
C475   C479    1.392   .     A
C475   H495    1.085   .     S
C476   C480    1.391   .     A
C476   H496    1.088   .     S
C477   C481    1.391   .     A
C477   H497    1.086   .     S
C478   C482    1.392   .     A
C478   H498    1.087   .     S
C479   C483    1.408   .     A
C479   H499    1.086   .     S
C480   C484    1.410   .     A
C480   H500    1.088   .     S
C481   C485    1.408   .     A
C481   H501    1.086   .     S
C482   C486    1.409   .     A
C482   H502    1.087   .     S
C483   C487    1.407   .     A
C483   C985    1.414   .     S
C484   C488    1.408   .     A
C484   C1006   1.393   .     S
C485   C489    1.407   .     A
C485   C1097   1.397   .     S
C486   C490    1.408   .     A
C486   C1109   1.406   .     S
C487   H503    1.086   .     S
C488   H504    1.088   .     S
C489   H505    1.087   .     S
C490   H506    1.088   .     S
Zr507  O521    2.246   .     S
Zr507  O522    2.231   .     S
Zr507  O523    2.231   .     S
Zr507  O524    2.243   .     S
Zr507  O527    2.069   .     S
Zr507  O528    2.361   .     S
Zr507  O532    2.068   .     S
Zr507  O543    2.362   .     S
Zr508  O513    2.081   .     S
Zr508  O517    2.287   .     S
Zr508  O518    2.326   1_565 S
Zr508  O519    2.331   1_565 S
Zr508  O528    2.273   1_565 S
Zr508  O529    2.108   1_565 S
Zr508  O532    2.144   1_565 S
Zr508  O533    2.308   .     S
Zr509  O513    2.140   1_545 S
Zr509  O526    2.292   .     S
Zr509  O527    2.079   .     S
Zr509  O528    2.307   .     S
Zr509  O530    2.318   1_545 S
Zr509  O537    2.109   1_545 S
Zr509  O539    2.279   1_545 S
Zr509  O540    2.341   1_545 S
Zr510  O525    2.330   1_565 S
Zr510  O527    2.146   1_565 S
Zr510  O538    2.324   1_565 S
Zr510  O539    2.307   .     S
Zr510  O541    2.292   .     S
Zr510  O542    2.107   1_565 S
Zr510  O543    2.275   1_565 S
Zr510  O544    2.079   .     S
Zr511  O513    2.070   .     S
Zr511  O514    2.245   .     S
Zr511  O515    2.240   .     S
Zr511  O516    2.241   .     S
Zr511  O533    2.366   .     S
Zr511  O536    2.244   .     S
Zr511  O539    2.361   .     S
Zr511  O544    2.069   .     S
Zr512  O520    2.294   .     S
Zr512  O531    2.320   1_545 S
Zr512  O532    2.080   .     S
Zr512  O533    2.278   1_545 S
Zr512  O534    2.336   1_545 S
Zr512  O535    2.108   1_545 S
Zr512  O543    2.305   .     S
Zr512  O544    2.143   1_545 S
O513   Zr509   2.140   1_565 S
O514   C547    1.271   .     A
O515   C551    1.270   .     A
O516   C546    1.269   .     A
O517   C546    1.272   .     A
O518   Zr508   2.326   1_545 S
O518   H566    0.967   .     S
O518   H568    1.014   .     S
O519   Zr508   2.331   1_545 S
O519   C552    1.271   .     A
O520   C550    1.272   .     A
O521   C552    1.271   .     A
O522   C550    1.269   .     A
O523   C548    1.269   .     A
O524   C549    1.270   .     A
O525   Zr510   2.330   1_545 S
O525   C549    1.271   .     A
O526   C548    1.271   .     A
O527   Zr510   2.146   1_545 S
O528   Zr508   2.273   1_545 S
O528   H561    0.963   .     S
O529   Zr508   2.108   1_545 S
O529   H563    0.963   1_545 S
O530   Zr509   2.318   1_565 S
O530   H555    0.966   .     S
O530   H556    1.015   .     S
O531   Zr512   2.320   1_565 S
O531   H564    1.015   .     S
O531   H565    0.966   .     S
O532   Zr508   2.144   1_545 S
O533   Zr512   2.278   1_565 S
O533   H554    0.964   .     S
O534   Zr512   2.336   1_565 S
O534   C545    1.269   .     A
O535   Zr512   2.108   1_565 S
O535   H567    0.963   1_565 S
O536   C545    1.271   .     A
O537   Zr509   2.109   1_565 S
O537   H559    0.963   1_565 S
O538   Zr510   2.324   1_545 S
O538   H558    1.015   .     S
O538   H560    0.967   .     S
O539   Zr509   2.279   1_565 S
O539   H562    0.964   .     S
O540   Zr509   2.341   1_565 S
O540   C547    1.269   .     A
O541   C551    1.272   .     A
O542   Zr510   2.107   1_545 S
O542   H557    0.962   1_545 S
O543   Zr510   2.275   1_545 S
O543   H553    0.963   .     S
O544   Zr512   2.143   1_565 S
H557   O542    0.962   1_565 S
H559   O537    0.963   1_545 S
H563   O529    0.963   1_565 S
H567   O535    0.963   1_545 S
C569   C573    1.401   .     A
C569   C589    1.392   .     A
C569   H593    1.085   .     S
C570   C574    1.403   .     A
C570   C590    1.390   .     A
C570   H594    1.087   .     S
C571   C575    1.403   .     A
C571   C591    1.391   .     A
C571   H595    1.086   .     S
C572   C576    1.403   .     A
C572   C592    1.392   .     A
C572   H596    1.086   .     S
C573   C577    1.402   .     A
C573   C688    1.489   .     S
C574   C578    1.403   .     A
C574   C692    1.488   .     S
C575   C579    1.403   .     A
C575   C687    1.492   .     S
C576   C580    1.402   .     A
C576   C694    1.492   .     S
C577   C581    1.393   .     A
C577   H597    1.087   .     S
C578   C582    1.392   .     A
C578   H598    1.085   .     S
C579   C583    1.392   .     A
C579   H599    1.087   .     S
C580   C584    1.393   .     A
C580   H600    1.087   .     S
C581   C585    1.409   .     A
C581   H601    1.087   .     S
C582   C586    1.408   .     A
C582   H602    1.088   .     S
C583   C587    1.410   .     A
C583   H603    1.087   .     S
C584   C588    1.410   .     A
C584   H604    1.086   .     S
C585   C589    1.408   .     A
C585   C945    1.420   .     S
C586   C590    1.408   .     A
C586   C957    1.396   .     S
C587   C591    1.407   .     A
C587   C916    1.398   .     S
C588   C592    1.408   .     A
C588   C895    1.403   .     S
C589   H605    1.087   .     S
C590   H606    1.089   .     S
C591   H607    1.087   .     S
C592   H608    1.087   .     S
C609   C613    1.403   .     A
C609   C629    1.391   .     A
C609   H633    1.086   .     S
C610   C614    1.403   .     A
C610   C630    1.392   .     A
C610   H634    1.085   .     S
C611   C615    1.403   .     A
C611   C631    1.391   .     A
C611   H635    1.086   .     S
C612   C616    1.403   .     A
C612   C632    1.391   .     A
C612   H636    1.085   .     S
C613   C617    1.403   .     A
C613   C691    1.491   .     S
C614   C618    1.403   .     A
C614   C689    1.492   .     S
C615   C619    1.403   .     A
C615   C690    1.488   .     S
C616   C620    1.403   .     A
C616   C693    1.490   .     S
C617   C621    1.391   .     A
C617   H637    1.086   .     S
C618   C622    1.392   .     A
C618   H638    1.087   .     S
C619   C623    1.391   .     A
C619   H639    1.085   .     S
C620   C624    1.393   .     A
C620   H640    1.087   .     S
C621   C625    1.409   .     A
C621   H641    1.086   .     S
C622   C626    1.409   .     A
C622   H642    1.088   .     S
C623   C627    1.409   .     A
C623   H643    1.086   .     S
C624   C628    1.408   .     A
C624   H644    1.087   .     S
C625   C629    1.407   .     A
C625   C999    1.411   .     S
C626   C630    1.409   .     A
C626   C1020   1.391   .     S
C627   C631    1.407   .     A
C627   C1105   1.394   .     S
C628   C632    1.409   .     A
C628   C1093   1.403   .     S
C629   H645    1.087   .     S
C630   H646    1.087   .     S
C631   H647    1.087   .     S
C632   H648    1.087   .     S
Zr649  O663    2.246   .     S
Zr649  O664    2.231   .     S
Zr649  O665    2.230   .     S
Zr649  O666    2.244   .     S
Zr649  O669    2.068   .     S
Zr649  O670    2.361   .     S
Zr649  O674    2.068   .     S
Zr649  O685    2.362   .     S
Zr650  O655    2.081   .     S
Zr650  O659    2.288   .     S
Zr650  O660    2.326   1_455 S
Zr650  O661    2.332   1_455 S
Zr650  O670    2.273   1_455 S
Zr650  O671    2.108   1_455 S
Zr650  O674    2.144   1_455 S
Zr650  O675    2.308   .     S
Zr651  O655    2.140   1_655 S
Zr651  O668    2.292   .     S
Zr651  O669    2.079   .     S
Zr651  O670    2.307   .     S
Zr651  O672    2.319   1_655 S
Zr651  O679    2.109   1_655 S
Zr651  O681    2.278   1_655 S
Zr651  O682    2.342   1_655 S
Zr652  O667    2.330   1_455 S
Zr652  O669    2.146   1_455 S
Zr652  O680    2.323   1_455 S
Zr652  O681    2.307   .     S
Zr652  O683    2.293   .     S
Zr652  O684    2.108   1_455 S
Zr652  O685    2.276   1_455 S
Zr652  O686    2.079   .     S
Zr653  O655    2.071   .     S
Zr653  O656    2.245   .     S
Zr653  O657    2.240   .     S
Zr653  O658    2.241   .     S
Zr653  O675    2.366   .     S
Zr653  O678    2.244   .     S
Zr653  O681    2.361   .     S
Zr653  O686    2.069   .     S
Zr654  O662    2.293   .     S
Zr654  O673    2.319   1_655 S
Zr654  O674    2.081   .     S
Zr654  O675    2.278   1_655 S
Zr654  O676    2.335   1_655 S
Zr654  O677    2.108   1_655 S
Zr654  O685    2.305   .     S
Zr654  O686    2.143   1_655 S
O655   Zr651   2.140   1_455 S
O656   C689    1.271   .     A
O657   C693    1.270   .     A
O658   C688    1.270   .     A
O659   C688    1.271   .     A
O660   Zr650   2.326   1_655 S
O660   H708    0.967   .     S
O660   H710    1.014   .     S
O661   Zr650   2.332   1_655 S
O661   C694    1.270   .     A
O662   C692    1.271   .     A
O663   C694    1.270   .     A
O664   C692    1.269   .     A
O665   C690    1.269   .     A
O666   C691    1.269   .     A
O667   Zr652   2.330   1_655 S
O667   C691    1.271   .     A
O668   C690    1.271   .     A
O669   Zr652   2.146   1_655 S
O670   Zr650   2.273   1_655 S
O670   H703    0.963   .     S
O671   Zr650   2.108   1_655 S
O671   H705    0.963   1_655 S
O672   Zr651   2.319   1_455 S
O672   H697    0.967   .     S
O672   H698    1.015   .     S
O673   Zr654   2.319   1_455 S
O673   H706    1.015   .     S
O673   H707    0.967   .     S
O674   Zr650   2.144   1_655 S
O675   Zr654   2.278   1_455 S
O675   H696    0.964   .     S
O676   Zr654   2.335   1_455 S
O676   C687    1.269   .     A
O677   Zr654   2.108   1_455 S
O677   H709    0.963   1_455 S
O678   C687    1.271   .     A
O679   Zr651   2.109   1_455 S
O679   H701    0.963   1_455 S
O680   Zr652   2.323   1_655 S
O680   H700    1.015   .     S
O680   H702    0.966   .     S
O681   Zr651   2.278   1_455 S
O681   H704    0.964   .     S
O682   Zr651   2.342   1_455 S
O682   C689    1.269   .     A
O683   C693    1.271   .     A
O684   Zr652   2.108   1_655 S
O684   H699    0.962   1_655 S
O685   Zr652   2.276   1_655 S
O685   H695    0.963   .     S
O686   Zr654   2.143   1_455 S
H699   O684    0.962   1_455 S
H701   O679    0.963   1_655 S
H705   O671    0.963   1_455 S
H709   O677    0.963   1_655 S
C711   C715    1.402   .     A
C711   C731    1.391   .     A
C711   H735    1.085   .     S
C712   C716    1.403   .     A
C712   C732    1.390   .     A
C712   H736    1.087   .     S
C713   C717    1.402   .     A
C713   C733    1.392   .     A
C713   H737    1.085   .     S
C714   C718    1.402   .     A
C714   C734    1.392   .     A
C714   H738    1.086   .     S
C715   C719    1.402   .     A
C715   C830    1.489   .     S
C716   C720    1.403   .     A
C716   C834    1.488   .     S
C717   C721    1.403   .     A
C717   C829    1.493   .     S
C718   C722    1.403   .     A
C718   C836    1.492   .     S
C719   C723    1.393   .     A
C719   H739    1.086   .     S
C720   C724    1.391   .     A
C720   H740    1.085   .     S
C721   C725    1.392   .     A
C721   H741    1.087   .     S
C722   C726    1.392   .     A
C722   H742    1.087   .     S
C723   C727    1.408   .     A
C723   H743    1.088   .     S
C724   C728    1.409   .     A
C724   H744    1.088   .     S
C725   C729    1.409   .     A
C725   H745    1.087   .     S
C726   C730    1.410   .     A
C726   H746    1.087   .     S
C727   C731    1.408   .     A
C727   C953    1.417   .     S
C728   C732    1.407   .     A
C728   C941    1.393   .     S
C729   C733    1.407   .     A
C729   C930    1.403   .     S
C730   C734    1.408   .     A
C730   C909    1.408   .     S
C731   H747    1.086   .     S
C732   H748    1.088   .     S
C733   H749    1.088   .     S
C734   H750    1.087   .     S
C751   C755    1.403   .     A
C751   C771    1.391   .     A
C751   H775    1.086   .     S
C752   C756    1.403   .     A
C752   C772    1.392   .     A
C752   H776    1.086   .     S
C753   C757    1.403   .     A
C753   C773    1.392   .     A
C753   H777    1.086   .     S
C754   C758    1.403   .     A
C754   C774    1.392   .     A
C754   H778    1.086   .     S
C755   C759    1.403   .     A
C755   C833    1.491   .     S
C756   C760    1.403   .     A
C756   C831    1.493   .     S
C757   C761    1.403   .     A
C757   C832    1.489   .     S
C758   C762    1.403   .     A
C758   C835    1.491   .     S
C759   C763    1.391   .     A
C759   H779    1.086   .     S
C760   C764    1.392   .     A
C760   H780    1.087   .     S
C761   C765    1.391   .     A
C761   H781    1.086   .     S
C762   C766    1.393   .     A
C762   H782    1.086   .     S
C763   C767    1.409   .     A
C763   H783    1.086   .     S
C764   C768    1.409   .     A
C764   H784    1.088   .     S
C765   C769    1.408   .     A
C765   H785    1.086   .     S
C766   C770    1.409   .     A
C766   H786    1.086   .     S
C767   C771    1.408   .     A
C767   C1013   1.408   .     S
C768   C772    1.408   .     A
C768   C992    1.388   .     S
C769   C773    1.407   .     A
C769   C1113   1.400   .     S
C770   C774    1.409   .     A
C770   C1101   1.409   .     S
C771   H787    1.087   .     S
C772   H788    1.088   .     S
C773   H789    1.087   .     S
C774   H790    1.087   .     S
Zr791  O805    2.247   .     S
Zr791  O806    2.231   .     S
Zr791  O807    2.231   .     S
Zr791  O808    2.243   .     S
Zr791  O811    2.069   .     S
Zr791  O812    2.362   .     S
Zr791  O816    2.068   .     S
Zr791  O827    2.362   .     S
Zr792  O797    2.081   .     S
Zr792  O801    2.288   .     S
Zr792  O802    2.326   .     S
Zr792  O803    2.332   .     S
Zr792  O812    2.273   .     S
Zr792  O813    2.108   .     S
Zr792  O816    2.144   .     S
Zr792  O817    2.308   .     S
Zr793  O797    2.140   .     S
Zr793  O810    2.292   .     S
Zr793  O811    2.079   .     S
Zr793  O812    2.306   .     S
Zr793  O814    2.319   .     S
Zr793  O821    2.109   .     S
Zr793  O823    2.278   .     S
Zr793  O824    2.342   .     S
Zr794  O809    2.330   .     S
Zr794  O811    2.145   .     S
Zr794  O822    2.324   .     S
Zr794  O823    2.307   .     S
Zr794  O825    2.293   .     S
Zr794  O826    2.108   .     S
Zr794  O827    2.275   .     S
Zr794  O828    2.079   .     S
Zr795  O797    2.070   .     S
Zr795  O798    2.245   .     S
Zr795  O799    2.240   .     S
Zr795  O800    2.240   .     S
Zr795  O817    2.365   .     S
Zr795  O820    2.244   .     S
Zr795  O823    2.361   .     S
Zr795  O828    2.069   .     S
Zr796  O804    2.293   .     S
Zr796  O815    2.319   .     S
Zr796  O816    2.080   .     S
Zr796  O817    2.278   .     S
Zr796  O818    2.336   .     S
Zr796  O819    2.108   .     S
Zr796  O827    2.304   .     S
Zr796  O828    2.143   .     S
O798   C831    1.271   .     A
O799   C835    1.271   .     A
O800   C830    1.270   .     A
O801   C830    1.271   .     A
O802   H850    0.967   .     S
O802   H852    1.014   .     S
O803   C836    1.270   .     A
O804   C834    1.271   .     A
O805   C836    1.270   .     A
O806   C834    1.269   .     A
O807   C832    1.269   .     A
O808   C833    1.269   .     A
O809   C833    1.270   .     A
O810   C832    1.270   .     A
O812   H845    0.963   .     S
O813   H847    0.963   .     S
O814   H839    0.967   .     S
O814   H840    1.015   .     S
O815   H848    1.015   .     S
O815   H849    0.966   .     S
O817   H838    0.964   .     S
O818   C829    1.269   .     A
O819   H851    0.963   .     S
O820   C829    1.272   .     A
O821   H843    0.963   .     S
O822   H842    1.015   .     S
O822   H844    0.967   .     S
O823   H846    0.965   .     S
O824   C831    1.270   .     A
O825   C835    1.270   .     A
O826   H841    0.962   .     S
O827   H837    0.964   .     S
C853   C854    1.448   .     A
C853   C858    1.422   .     A
C854   C855    1.378   .     A
C854   C859    1.411   .     A
C855   H898    1.053   .     S
C855   C951    1.466   .     A
H856   C897    1.053   .     S
H857   C858    1.068   .     S
C858   C981    1.422   .     A
C859   C915    1.558   .     A
C859   C982    1.411   .     A
C860   C861    1.448   .     A
C860   C865    1.420   .     A
C861   C862    1.376   .     A
C861   C866    1.411   .     A
C862   H905    1.053   .     S
C862   C955    1.466   .     A
H863   C904    1.053   .     S
H864   C865    1.068   .     S
C865   C961    1.421   .     A
C866   C922    1.558   .     A
C866   C962    1.411   .     A
C867   C868    1.448   .     A
C867   C872    1.421   .     A
C868   C869    1.377   .     A
C868   C873    1.411   .     A
C869   H912    1.054   .     S
C869   C959    1.466   .     A
H870   C911    1.054   .     S
H871   C872    1.068   .     S
C872   C965    1.422   .     A
C873   C929    1.558   .     A
C873   C966    1.411   .     A
C874   C875    1.448   .     A
C874   C879    1.422   .     A
C875   C876    1.378   .     A
C875   C880    1.411   .     A
C876   H919    1.053   .     S
C876   C939    1.466   .     A
H877   C918    1.053   .     S
H878   C879    1.068   .     S
C879   C969    1.422   .     A
C880   C936    1.558   .     A
C880   C970    1.411   .     A
C881   C882    1.448   .     A
C881   C886    1.420   .     A
C882   C883    1.376   .     A
C882   C887    1.411   .     A
C883   H926    1.053   .     S
C883   C943    1.466   .     A
H884   C925    1.053   .     S
H885   C886    1.068   .     S
C886   C973    1.421   .     A
C887   C901    1.558   .     A
C887   C974    1.411   .     A
C888   C889    1.448   .     A
C888   C893    1.421   .     A
C889   C890    1.377   .     A
C889   C894    1.411   .     A
C890   H933    1.054   .     S
C890   C947    1.466   .     A
H891   C932    1.054   .     S
H892   C893    1.068   .     S
C893   C977    1.422   .     A
C894   C908    1.558   .     A
C894   C978    1.411   .     A
C895   C896    1.448   .     A
C895   C900    1.420   .     A
C896   C897    1.376   .     A
C896   C901    1.411   .     A
C897   C975    1.466   .     A
H899   C900    1.068   .     S
C900   C941    1.421   .     A
C901   C942    1.411   .     A
C902   C903    1.448   .     A
C902   C907    1.421   .     A
C903   C904    1.377   .     A
C903   C908    1.411   .     A
C904   C979    1.466   .     A
H906   C907    1.068   .     S
C907   C945    1.421   .     A
C908   C946    1.411   .     A
C909   C910    1.448   .     A
C909   C914    1.422   .     A
C910   C911    1.377   .     A
C910   C915    1.411   .     A
C911   C983    1.466   .     A
H913   C914    1.068   .     S
C914   C949    1.422   .     A
C915   C950    1.411   .     A
C916   C917    1.448   .     A
C916   C921    1.420   .     A
C917   C918    1.376   .     A
C917   C922    1.411   .     A
C918   C963    1.466   .     A
H920   C921    1.068   .     S
C921   C953    1.421   .     A
C922   C954    1.411   .     A
C923   C924    1.448   .     A
C923   C928    1.421   .     A
C924   C925    1.377   .     A
C924   C929    1.411   .     A
C925   C967    1.466   .     A
H927   C928    1.068   .     S
C928   C957    1.421   .     A
C929   C958    1.411   .     A
C930   C931    1.448   .     A
C930   C935    1.422   .     A
C931   C932    1.377   .     A
C931   C936    1.411   .     A
C932   C971    1.466   .     A
H934   C935    1.068   .     S
C935   C937    1.422   .     A
C936   C938    1.411   .     A
C937   C938    1.448   .     A
C938   C939    1.378   .     A
C939   H964    1.053   .     S
H940   C963    1.053   .     S
C941   C942    1.448   .     A
C942   C943    1.376   .     A
C943   H968    1.053   .     S
H944   C967    1.053   .     S
C945   C946    1.448   .     A
C946   C947    1.377   .     A
C947   H972    1.054   .     S
H948   C971    1.054   .     S
C949   C950    1.448   .     A
C950   C951    1.378   .     A
C951   H976    1.053   .     S
H952   C975    1.053   .     S
C953   C954    1.448   .     A
C954   C955    1.376   .     A
C955   H980    1.053   .     S
H956   C979    1.053   .     S
C957   C958    1.448   .     A
C958   C959    1.377   .     A
C959   H984    1.054   .     S
H960   C983    1.054   .     S
C961   C962    1.448   .     A
C962   C963    1.376   .     A
C965   C966    1.448   .     A
C966   C967    1.377   .     A
C969   C970    1.448   .     A
C970   C971    1.377   .     A
C973   C974    1.448   .     A
C974   C975    1.376   .     A
C977   C978    1.448   .     A
C978   C979    1.377   .     A
C981   C982    1.448   .     A
C982   C983    1.377   .     A
C985   C986    1.448   .     A
C985   C990    1.422   .     A
C986   C987    1.378   .     A
C986   C991    1.411   .     A
C987   H1030   1.053   .     S
C987   C1083   1.466   .     A
H988   C1029   1.053   .     S
H989   C990    1.068   .     S
C990   C1113   1.422   .     A
C991   C1047   1.558   .     A
C991   C1114   1.411   .     A
C992   C993    1.448   .     A
C992   C997    1.420   .     A
C993   C994    1.376   .     A
C993   C998    1.411   .     A
C994   H1037   1.053   .     S
C994   C1087   1.466   .     A
H995   C1036   1.053   .     S
H996   C997    1.068   .     S
C997   C1093   1.421   .     A
C998   C1054   1.558   .     A
C998   C1094   1.411   .     A
C999   C1000   1.448   .     A
C999   C1004   1.421   .     A
C1000  C1001   1.377   .     A
C1000  C1005   1.411   .     A
C1001  H1044   1.054   .     S
C1001  C1091   1.466   .     A
H1002  C1043   1.054   .     S
H1003  C1004   1.068   .     S
C1004  C1097   1.422   .     A
C1005  C1061   1.558   .     A
C1005  C1098   1.411   .     A
C1006  C1007   1.448   .     A
C1006  C1011   1.422   .     A
C1007  C1008   1.378   .     A
C1007  C1012   1.411   .     A
C1008  H1051   1.053   .     S
C1008  C1071   1.466   .     A
H1009  C1050   1.053   .     S
H1010  C1011   1.068   .     S
C1011  C1101   1.422   .     A
C1012  C1068   1.558   .     A
C1012  C1102   1.411   .     A
C1013  C1014   1.448   .     A
C1013  C1018   1.420   .     A
C1014  C1015   1.376   .     A
C1014  C1019   1.411   .     A
C1015  H1058   1.053   .     S
C1015  C1075   1.466   .     A
H1016  C1057   1.053   .     S
H1017  C1018   1.068   .     S
C1018  C1105   1.421   .     A
C1019  C1033   1.558   .     A
C1019  C1106   1.411   .     A
C1020  C1021   1.448   .     A
C1020  C1025   1.421   .     A
C1021  C1022   1.377   .     A
C1021  C1026   1.411   .     A
C1022  H1065   1.054   .     S
C1022  C1079   1.466   .     A
H1023  C1064   1.054   .     S
H1024  C1025   1.068   .     S
C1025  C1109   1.422   .     A
C1026  C1040   1.558   .     A
C1026  C1110   1.411   .     A
C1027  C1028   1.448   .     A
C1027  C1032   1.420   .     A
C1028  C1029   1.376   .     A
C1028  C1033   1.411   .     A
C1029  C1107   1.466   .     A
H1031  C1032   1.068   .     S
C1032  C1073   1.421   .     A
C1033  C1074   1.411   .     A
C1034  C1035   1.448   .     A
C1034  C1039   1.421   .     A
C1035  C1036   1.377   .     A
C1035  C1040   1.411   .     A
C1036  C1111   1.466   .     A
H1038  C1039   1.068   .     S
C1039  C1077   1.421   .     A
C1040  C1078   1.411   .     A
C1041  C1042   1.448   .     A
C1041  C1046   1.422   .     A
C1042  C1043   1.377   .     A
C1042  C1047   1.411   .     A
C1043  C1115   1.466   .     A
H1045  C1046   1.068   .     S
C1046  C1081   1.422   .     A
C1047  C1082   1.411   .     A
C1048  C1049   1.448   .     A
C1048  C1053   1.420   .     A
C1049  C1050   1.376   .     A
C1049  C1054   1.411   .     A
C1050  C1095   1.466   .     A
H1052  C1053   1.068   .     S
C1053  C1085   1.421   .     A
C1054  C1086   1.411   .     A
C1055  C1056   1.448   .     A
C1055  C1060   1.421   .     A
C1056  C1057   1.377   .     A
C1056  C1061   1.411   .     A
C1057  C1099   1.466   .     A
H1059  C1060   1.068   .     S
C1060  C1089   1.421   .     A
C1061  C1090   1.411   .     A
C1062  C1063   1.448   .     A
C1062  C1067   1.422   .     A
C1063  C1064   1.377   .     A
C1063  C1068   1.411   .     A
C1064  C1103   1.466   .     A
H1066  C1067   1.068   .     S
C1067  C1069   1.422   .     A
C1068  C1070   1.411   .     A
C1069  C1070   1.448   .     A
C1070  C1071   1.378   .     A
C1071  H1096   1.053   .     S
H1072  C1095   1.053   .     S
C1073  C1074   1.448   .     A
C1074  C1075   1.376   .     A
C1075  H1100   1.053   .     S
H1076  C1099   1.053   .     S
C1077  C1078   1.448   .     A
C1078  C1079   1.377   .     A
C1079  H1104   1.054   .     S
H1080  C1103   1.054   .     S
C1081  C1082   1.448   .     A
C1082  C1083   1.378   .     A
C1083  H1108   1.053   .     S
H1084  C1107   1.053   .     S
C1085  C1086   1.448   .     A
C1086  C1087   1.376   .     A
C1087  H1112   1.053   .     S
H1088  C1111   1.053   .     S
C1089  C1090   1.448   .     A
C1090  C1091   1.377   .     A
C1091  H1116   1.054   .     S
H1092  C1115   1.054   .     S
C1093  C1094   1.448   .     A
C1094  C1095   1.376   .     A
C1097  C1098   1.448   .     A
C1098  C1099   1.377   .     A
C1101  C1102   1.448   .     A
C1102  C1103   1.377   .     A
C1105  C1106   1.448   .     A
C1106  C1107   1.376   .     A
C1109  C1110   1.448   .     A
C1110  C1111   1.377   .     A
C1113  C1114   1.448   .     A
C1114  C1115   1.377   .     A
