data_REWNEO_clean
_audit_creation_date              2015-01-20
_audit_creation_method            'Materials Studio'
_symmetry_space_group_name_H-M    'P1'
_symmetry_Int_Tables_number       1
_symmetry_cell_setting            triclinic
loop_
_symmetry_equiv_pos_as_xyz
  x,y,z
_cell_length_a                    31.3109
_cell_length_b                    31.3109
_cell_length_c                    44.8070
_cell_angle_alpha                 90.0000
_cell_angle_beta                  90.0000
_cell_angle_gamma                 90.0000
loop_
_atom_site_label
_atom_site_type_symbol
_atom_site_fract_x
_atom_site_fract_y
_atom_site_fract_z
_atom_site_U_iso_or_equiv
_atom_site_adp_type
_atom_site_occupancy
Cu1    Cu    0.89505   0.85505   0.62720   0.01267  Uiso   1.00
Cu2    Cu    0.85868   0.80609   0.66816   0.01267  Uiso   1.00
H3     H     0.40400   0.68580   0.77400   0.01267  Uiso   1.00
H4     H     0.52180   0.73320   0.72510   0.01267  Uiso   1.00
H5     H     0.54980   0.77480   0.68300   0.01267  Uiso   1.00
H6     H     0.52400   0.84660   0.61240   0.01267  Uiso   1.00
H7     H     0.42740   0.80070   0.66020   0.01267  Uiso   1.00
H8     H     0.37970   0.85250   0.63570   0.01267  Uiso   1.00
H9     H     0.31440   0.87180   0.62300   0.01267  Uiso   1.00
H10    H     0.24340   0.94460   0.57150   0.01267  Uiso   1.00
H11    H     0.36670   0.94000   0.55530   0.01267  Uiso   1.00
H12    H     0.78630   0.87550   0.57130   0.01267  Uiso   1.00
H13    H     0.66140   0.85340   0.56840   0.01267  Uiso   1.00
H14    H     0.73350   0.80220   0.63260   0.01267  Uiso   1.00
H15    H     0.60060   0.85340   0.60750   0.01267  Uiso   1.00
H16    H     0.48040   0.63770   0.83690   0.01267  Uiso   1.00
H17    H     0.53240   0.70940   0.77260   0.01267  Uiso   1.00
C18    C     0.39700   0.64520   0.82570   0.01267  Uiso   1.00
C19    C     0.43610   0.66580   0.80840   0.01267  Uiso   1.00
C20    C     0.43110   0.68400   0.78300   0.01267  Uiso   1.00
C21    C     0.46580   0.70060   0.76960   0.01267  Uiso   1.00
C22    C     0.49210   0.73740   0.72370   0.01267  Uiso   1.00
C23    C     0.46850   0.75960   0.70010   0.01267  Uiso   1.00
C24    C     0.48570   0.77630   0.67280   0.01267  Uiso   1.00
C25    C     0.53040   0.78200   0.66780   0.01267  Uiso   1.00
C26    C     0.54410   0.79630   0.64400   0.01267  Uiso   1.00
C27    C     0.51270   0.82930   0.62760   0.01267  Uiso   1.00
C28    C     0.47250   0.83350   0.63410   0.01267  Uiso   1.00
C29    C     0.45690   0.80280   0.65650   0.01267  Uiso   1.00
C30    C     0.44650   0.85570   0.61550   0.01267  Uiso   1.00
C31    C     0.39740   0.86320   0.62050   0.01267  Uiso   1.00
C32    C     0.35070   0.90700   0.59000   0.01267  Uiso   1.00
C33    C     0.31190   0.89270   0.60810   0.01267  Uiso   1.00
C34    C     0.27140   0.91230   0.60150   0.01267  Uiso   1.00
C35    C     0.27070   0.93840   0.57900   0.01267  Uiso   1.00
C36    C     0.30470   0.95880   0.56430   0.01267  Uiso   1.00
C37    C     0.34420   0.93500   0.56870   0.01267  Uiso   1.00
C38    C     0.30010   0.98980   0.54070   0.01267  Uiso   1.00
C39    C     0.80760   0.83890   0.61960   0.01267  Uiso   1.00
C40    C     0.76510   0.84040   0.60500   0.01267  Uiso   1.00
C41    C     0.76160   0.86410   0.58020   0.01267  Uiso   1.00
C42    C     0.72050   0.87230   0.56700   0.01267  Uiso   1.00
C43    C     0.68740   0.85290   0.57900   0.01267  Uiso   1.00
C44    C     0.68840   0.83200   0.60600   0.01267  Uiso   1.00
C45    C     0.73030   0.82190   0.61690   0.01267  Uiso   1.00
C46    C     0.71550   0.89750   0.54170   0.01267  Uiso   1.00
C47    C     0.61120   0.82820   0.61620   0.01267  Uiso   1.00
C48    C     0.23730   0.89990   0.61810   0.01267  Uiso   1.00
C49    C     0.59030   0.79600   0.63390   0.01267  Uiso   1.00
C50    C     0.47720   0.65690   0.82100   0.01267  Uiso   1.00
C51    C     0.51110   0.67710   0.80910   0.01267  Uiso   1.00
C52    C     0.50840   0.69780   0.78220   0.01267  Uiso   1.00
C53    C     0.55180   0.67260   0.82410   0.01267  Uiso   1.00
N54    N     0.46460   0.72560   0.74100   0.01267  Uiso   1.00
N55    N     0.42380   0.74660   0.73690   0.01267  Uiso   1.00
N56    N     0.43400   0.75780   0.70770   0.01267  Uiso   1.00
N57    N     0.45150   0.86860   0.58860   0.01267  Uiso   1.00
N58    N     0.41690   0.88490   0.57620   0.01267  Uiso   1.00
N59    N     0.38790   0.88760   0.59850   0.01267  Uiso   1.00
N60    N     0.65140   0.81060   0.61600   0.01267  Uiso   1.00
N61    N     0.65630   0.77910   0.63680   0.01267  Uiso   1.00
N62    N     0.61370   0.77180   0.64430   0.01267  Uiso   1.00
O63    O     0.40126   0.62660   0.84842   0.01267  Uiso   1.00
O64    O     0.36072   0.65180   0.81220   0.01267  Uiso   1.00
O65    O     0.83936   0.85186   0.60668   0.01267  Uiso   1.00
O66    O     0.80753   0.81290   0.64342   0.01267  Uiso   1.00
O67    O     0.19668   0.91068   0.60981   0.01267  Uiso   1.00
O68    O     0.24009   0.87510   0.64197   0.01267  Uiso   1.00
O69    O     0.55590   0.64956   0.84765   0.01267  Uiso   1.00
O70    O     0.58476   0.69420   0.81253   0.01267  Uiso   1.00
O71    O     0.75202   0.91640   0.53033   0.01267  Uiso   1.00
O72    O     0.67900   0.90750   0.53090   0.01267  Uiso   1.00
O73    O     0.26230   0.99665   0.53027   0.01267  Uiso   1.00
O74    O     0.33423   0.00532   0.52982   0.01267  Uiso   1.00
Cu75   Cu    0.39505   0.35505   0.12720   0.01267  Uiso   1.00
Cu76   Cu    0.35868   0.30609   0.16816   0.01267  Uiso   1.00
H77    H     0.90400   0.18580   0.27400   0.01267  Uiso   1.00
H78    H     0.02180   0.23320   0.22510   0.01267  Uiso   1.00
H79    H     0.04980   0.27480   0.18300   0.01267  Uiso   1.00
H80    H     0.02400   0.34660   0.11240   0.01267  Uiso   1.00
H81    H     0.92740   0.30070   0.16020   0.01267  Uiso   1.00
H82    H     0.87970   0.35250   0.13570   0.01267  Uiso   1.00
H83    H     0.81440   0.37180   0.12300   0.01267  Uiso   1.00
H84    H     0.74340   0.44460   0.07150   0.01267  Uiso   1.00
H85    H     0.86670   0.44000   0.05530   0.01267  Uiso   1.00
H86    H     0.28630   0.37550   0.07130   0.01267  Uiso   1.00
H87    H     0.16140   0.35340   0.06840   0.01267  Uiso   1.00
H88    H     0.23350   0.30220   0.13260   0.01267  Uiso   1.00
H89    H     0.10060   0.35340   0.10750   0.01267  Uiso   1.00
H90    H     0.98040   0.13770   0.33690   0.01267  Uiso   1.00
H91    H     0.03240   0.20940   0.27260   0.01267  Uiso   1.00
C92    C     0.89700   0.14520   0.32570   0.01267  Uiso   1.00
C93    C     0.93610   0.16580   0.30840   0.01267  Uiso   1.00
C94    C     0.93110   0.18400   0.28300   0.01267  Uiso   1.00
C95    C     0.96580   0.20060   0.26960   0.01267  Uiso   1.00
C96    C     0.99210   0.23740   0.22370   0.01267  Uiso   1.00
C97    C     0.96850   0.25960   0.20010   0.01267  Uiso   1.00
C98    C     0.98570   0.27630   0.17280   0.01267  Uiso   1.00
C99    C     0.03040   0.28200   0.16780   0.01267  Uiso   1.00
C100   C     0.04410   0.29630   0.14400   0.01267  Uiso   1.00
C101   C     0.01270   0.32930   0.12760   0.01267  Uiso   1.00
C102   C     0.97250   0.33350   0.13410   0.01267  Uiso   1.00
C103   C     0.95690   0.30280   0.15650   0.01267  Uiso   1.00
C104   C     0.94650   0.35570   0.11550   0.01267  Uiso   1.00
C105   C     0.89740   0.36320   0.12050   0.01267  Uiso   1.00
C106   C     0.85070   0.40700   0.09000   0.01267  Uiso   1.00
C107   C     0.81190   0.39270   0.10810   0.01267  Uiso   1.00
C108   C     0.77140   0.41230   0.10150   0.01267  Uiso   1.00
C109   C     0.77070   0.43840   0.07900   0.01267  Uiso   1.00
C110   C     0.80470   0.45880   0.06430   0.01267  Uiso   1.00
C111   C     0.84420   0.43500   0.06870   0.01267  Uiso   1.00
C112   C     0.80010   0.48980   0.04070   0.01267  Uiso   1.00
C113   C     0.30760   0.33890   0.11960   0.01267  Uiso   1.00
C114   C     0.26510   0.34040   0.10500   0.01267  Uiso   1.00
C115   C     0.26160   0.36410   0.08020   0.01267  Uiso   1.00
C116   C     0.22050   0.37230   0.06700   0.01267  Uiso   1.00
C117   C     0.18740   0.35290   0.07900   0.01267  Uiso   1.00
C118   C     0.18840   0.33200   0.10600   0.01267  Uiso   1.00
C119   C     0.23030   0.32190   0.11690   0.01267  Uiso   1.00
C120   C     0.21550   0.39750   0.04170   0.01267  Uiso   1.00
C121   C     0.11120   0.32820   0.11620   0.01267  Uiso   1.00
C122   C     0.73730   0.39990   0.11810   0.01267  Uiso   1.00
C123   C     0.09030   0.29600   0.13390   0.01267  Uiso   1.00
C124   C     0.97720   0.15690   0.32100   0.01267  Uiso   1.00
C125   C     0.01110   0.17710   0.30910   0.01267  Uiso   1.00
C126   C     0.00840   0.19780   0.28220   0.01267  Uiso   1.00
C127   C     0.05180   0.17260   0.32410   0.01267  Uiso   1.00
N128   N     0.96460   0.22560   0.24100   0.01267  Uiso   1.00
N129   N     0.92380   0.24660   0.23690   0.01267  Uiso   1.00
N130   N     0.93400   0.25780   0.20770   0.01267  Uiso   1.00
N131   N     0.95150   0.36860   0.08860   0.01267  Uiso   1.00
N132   N     0.91690   0.38490   0.07620   0.01267  Uiso   1.00
N133   N     0.88790   0.38760   0.09850   0.01267  Uiso   1.00
N134   N     0.15140   0.31060   0.11600   0.01267  Uiso   1.00
N135   N     0.15630   0.27910   0.13680   0.01267  Uiso   1.00
N136   N     0.11370   0.27180   0.14430   0.01267  Uiso   1.00
O137   O     0.90126   0.12660   0.34842   0.01267  Uiso   1.00
O138   O     0.86072   0.15180   0.31220   0.01267  Uiso   1.00
O139   O     0.33936   0.35186   0.10668   0.01267  Uiso   1.00
O140   O     0.30753   0.31290   0.14342   0.01267  Uiso   1.00
O141   O     0.69668   0.41068   0.10981   0.01267  Uiso   1.00
O142   O     0.74009   0.37510   0.14197   0.01267  Uiso   1.00
O143   O     0.05590   0.14956   0.34765   0.01267  Uiso   1.00
O144   O     0.08476   0.19420   0.31253   0.01267  Uiso   1.00
O145   O     0.25202   0.41640   0.03033   0.01267  Uiso   1.00
O146   O     0.17900   0.40750   0.03090   0.01267  Uiso   1.00
O147   O     0.76230   0.49665   0.03027   0.01267  Uiso   1.00
O148   O     0.83423   0.50532   0.02982   0.01267  Uiso   1.00
Cu149  Cu    0.10495   0.14495   0.62720   0.01267  Uiso   1.00
Cu150  Cu    0.14132   0.19391   0.66816   0.01267  Uiso   1.00
H151   H     0.59600   0.31420   0.77400   0.01267  Uiso   1.00
H152   H     0.47820   0.26680   0.72510   0.01267  Uiso   1.00
H153   H     0.45020   0.22520   0.68300   0.01267  Uiso   1.00
H154   H     0.47600   0.15340   0.61240   0.01267  Uiso   1.00
H155   H     0.57260   0.19930   0.66020   0.01267  Uiso   1.00
H156   H     0.62030   0.14750   0.63570   0.01267  Uiso   1.00
H157   H     0.68560   0.12820   0.62300   0.01267  Uiso   1.00
H158   H     0.75660   0.05540   0.57150   0.01267  Uiso   1.00
H159   H     0.63330   0.06000   0.55530   0.01267  Uiso   1.00
H160   H     0.21370   0.12450   0.57130   0.01267  Uiso   1.00
H161   H     0.33860   0.14660   0.56840   0.01267  Uiso   1.00
H162   H     0.26650   0.19780   0.63260   0.01267  Uiso   1.00
H163   H     0.39940   0.14660   0.60750   0.01267  Uiso   1.00
H164   H     0.51960   0.36230   0.83690   0.01267  Uiso   1.00
H165   H     0.46760   0.29060   0.77260   0.01267  Uiso   1.00
C166   C     0.60300   0.35480   0.82570   0.01267  Uiso   1.00
C167   C     0.56390   0.33420   0.80840   0.01267  Uiso   1.00
C168   C     0.56890   0.31600   0.78300   0.01267  Uiso   1.00
C169   C     0.53420   0.29940   0.76960   0.01267  Uiso   1.00
C170   C     0.50790   0.26260   0.72370   0.01267  Uiso   1.00
C171   C     0.53150   0.24040   0.70010   0.01267  Uiso   1.00
C172   C     0.51430   0.22370   0.67280   0.01267  Uiso   1.00
C173   C     0.46960   0.21800   0.66780   0.01267  Uiso   1.00
C174   C     0.45590   0.20370   0.64400   0.01267  Uiso   1.00
C175   C     0.48730   0.17070   0.62760   0.01267  Uiso   1.00
C176   C     0.52750   0.16650   0.63410   0.01267  Uiso   1.00
C177   C     0.54310   0.19720   0.65650   0.01267  Uiso   1.00
C178   C     0.55350   0.14430   0.61550   0.01267  Uiso   1.00
C179   C     0.60260   0.13680   0.62050   0.01267  Uiso   1.00
C180   C     0.64930   0.09300   0.59000   0.01267  Uiso   1.00
C181   C     0.68810   0.10730   0.60810   0.01267  Uiso   1.00
C182   C     0.72860   0.08770   0.60150   0.01267  Uiso   1.00
C183   C     0.72930   0.06160   0.57900   0.01267  Uiso   1.00
C184   C     0.69530   0.04120   0.56430   0.01267  Uiso   1.00
C185   C     0.65580   0.06500   0.56870   0.01267  Uiso   1.00
C186   C     0.69990   0.01020   0.54070   0.01267  Uiso   1.00
C187   C     0.19240   0.16110   0.61960   0.01267  Uiso   1.00
C188   C     0.23490   0.15960   0.60500   0.01267  Uiso   1.00
C189   C     0.23840   0.13590   0.58020   0.01267  Uiso   1.00
C190   C     0.27950   0.12770   0.56700   0.01267  Uiso   1.00
C191   C     0.31260   0.14710   0.57900   0.01267  Uiso   1.00
C192   C     0.31160   0.16800   0.60600   0.01267  Uiso   1.00
C193   C     0.26970   0.17810   0.61690   0.01267  Uiso   1.00
C194   C     0.28450   0.10250   0.54170   0.01267  Uiso   1.00
C195   C     0.38880   0.17180   0.61620   0.01267  Uiso   1.00
C196   C     0.76270   0.10010   0.61810   0.01267  Uiso   1.00
C197   C     0.40970   0.20400   0.63390   0.01267  Uiso   1.00
C198   C     0.52280   0.34310   0.82100   0.01267  Uiso   1.00
C199   C     0.48890   0.32290   0.80910   0.01267  Uiso   1.00
C200   C     0.49160   0.30220   0.78220   0.01267  Uiso   1.00
C201   C     0.44820   0.32740   0.82410   0.01267  Uiso   1.00
N202   N     0.53540   0.27440   0.74100   0.01267  Uiso   1.00
N203   N     0.57620   0.25340   0.73690   0.01267  Uiso   1.00
N204   N     0.56600   0.24220   0.70770   0.01267  Uiso   1.00
N205   N     0.54850   0.13140   0.58860   0.01267  Uiso   1.00
N206   N     0.58310   0.11510   0.57620   0.01267  Uiso   1.00
N207   N     0.61210   0.11240   0.59850   0.01267  Uiso   1.00
N208   N     0.34860   0.18940   0.61600   0.01267  Uiso   1.00
N209   N     0.34370   0.22090   0.63680   0.01267  Uiso   1.00
N210   N     0.38630   0.22820   0.64430   0.01267  Uiso   1.00
O211   O     0.59874   0.37340   0.84842   0.01267  Uiso   1.00
O212   O     0.63928   0.34820   0.81220   0.01267  Uiso   1.00
O213   O     0.16064   0.14814   0.60668   0.01267  Uiso   1.00
O214   O     0.19247   0.18710   0.64342   0.01267  Uiso   1.00
O215   O     0.80332   0.08932   0.60981   0.01267  Uiso   1.00
O216   O     0.75991   0.12490   0.64197   0.01267  Uiso   1.00
O217   O     0.44410   0.35044   0.84765   0.01267  Uiso   1.00
O218   O     0.41524   0.30580   0.81253   0.01267  Uiso   1.00
O219   O     0.24798   0.08360   0.53033   0.01267  Uiso   1.00
O220   O     0.32100   0.09250   0.53090   0.01267  Uiso   1.00
O221   O     0.73770   0.00335   0.53027   0.01267  Uiso   1.00
O222   O     0.66577   0.99468   0.52982   0.01267  Uiso   1.00
Cu223  Cu    0.60495   0.64495   0.12720   0.01267  Uiso   1.00
Cu224  Cu    0.64132   0.69391   0.16816   0.01267  Uiso   1.00
H225   H     0.09600   0.81420   0.27400   0.01267  Uiso   1.00
H226   H     0.97820   0.76680   0.22510   0.01267  Uiso   1.00
H227   H     0.95020   0.72520   0.18300   0.01267  Uiso   1.00
H228   H     0.97600   0.65340   0.11240   0.01267  Uiso   1.00
H229   H     0.07260   0.69930   0.16020   0.01267  Uiso   1.00
H230   H     0.12030   0.64750   0.13570   0.01267  Uiso   1.00
H231   H     0.18560   0.62820   0.12300   0.01267  Uiso   1.00
H232   H     0.25660   0.55540   0.07150   0.01267  Uiso   1.00
H233   H     0.13330   0.56000   0.05530   0.01267  Uiso   1.00
H234   H     0.71370   0.62450   0.07130   0.01267  Uiso   1.00
H235   H     0.83860   0.64660   0.06840   0.01267  Uiso   1.00
H236   H     0.76650   0.69780   0.13260   0.01267  Uiso   1.00
H237   H     0.89940   0.64660   0.10750   0.01267  Uiso   1.00
H238   H     0.01960   0.86230   0.33690   0.01267  Uiso   1.00
H239   H     0.96760   0.79060   0.27260   0.01267  Uiso   1.00
C240   C     0.10300   0.85480   0.32570   0.01267  Uiso   1.00
C241   C     0.06390   0.83420   0.30840   0.01267  Uiso   1.00
C242   C     0.06890   0.81600   0.28300   0.01267  Uiso   1.00
C243   C     0.03420   0.79940   0.26960   0.01267  Uiso   1.00
C244   C     0.00790   0.76260   0.22370   0.01267  Uiso   1.00
C245   C     0.03150   0.74040   0.20010   0.01267  Uiso   1.00
C246   C     0.01430   0.72370   0.17280   0.01267  Uiso   1.00
C247   C     0.96960   0.71800   0.16780   0.01267  Uiso   1.00
C248   C     0.95590   0.70370   0.14400   0.01267  Uiso   1.00
C249   C     0.98730   0.67070   0.12760   0.01267  Uiso   1.00
C250   C     0.02750   0.66650   0.13410   0.01267  Uiso   1.00
C251   C     0.04310   0.69720   0.15650   0.01267  Uiso   1.00
C252   C     0.05350   0.64430   0.11550   0.01267  Uiso   1.00
C253   C     0.10260   0.63680   0.12050   0.01267  Uiso   1.00
C254   C     0.14930   0.59300   0.09000   0.01267  Uiso   1.00
C255   C     0.18810   0.60730   0.10810   0.01267  Uiso   1.00
C256   C     0.22860   0.58770   0.10150   0.01267  Uiso   1.00
C257   C     0.22930   0.56160   0.07900   0.01267  Uiso   1.00
C258   C     0.19530   0.54120   0.06430   0.01267  Uiso   1.00
C259   C     0.15580   0.56500   0.06870   0.01267  Uiso   1.00
C260   C     0.19990   0.51020   0.04070   0.01267  Uiso   1.00
C261   C     0.69240   0.66110   0.11960   0.01267  Uiso   1.00
C262   C     0.73490   0.65960   0.10500   0.01267  Uiso   1.00
C263   C     0.73840   0.63590   0.08020   0.01267  Uiso   1.00
C264   C     0.77950   0.62770   0.06700   0.01267  Uiso   1.00
C265   C     0.81260   0.64710   0.07900   0.01267  Uiso   1.00
C266   C     0.81160   0.66800   0.10600   0.01267  Uiso   1.00
C267   C     0.76970   0.67810   0.11690   0.01267  Uiso   1.00
C268   C     0.78450   0.60250   0.04170   0.01267  Uiso   1.00
C269   C     0.88880   0.67180   0.11620   0.01267  Uiso   1.00
C270   C     0.26270   0.60010   0.11810   0.01267  Uiso   1.00
C271   C     0.90970   0.70400   0.13390   0.01267  Uiso   1.00
C272   C     0.02280   0.84310   0.32100   0.01267  Uiso   1.00
C273   C     0.98890   0.82290   0.30910   0.01267  Uiso   1.00
C274   C     0.99160   0.80220   0.28220   0.01267  Uiso   1.00
C275   C     0.94820   0.82740   0.32410   0.01267  Uiso   1.00
N276   N     0.03540   0.77440   0.24100   0.01267  Uiso   1.00
N277   N     0.07620   0.75340   0.23690   0.01267  Uiso   1.00
N278   N     0.06600   0.74220   0.20770   0.01267  Uiso   1.00
N279   N     0.04850   0.63140   0.08860   0.01267  Uiso   1.00
N280   N     0.08310   0.61510   0.07620   0.01267  Uiso   1.00
N281   N     0.11210   0.61240   0.09850   0.01267  Uiso   1.00
N282   N     0.84860   0.68940   0.11600   0.01267  Uiso   1.00
N283   N     0.84370   0.72090   0.13680   0.01267  Uiso   1.00
N284   N     0.88630   0.72820   0.14430   0.01267  Uiso   1.00
O285   O     0.09874   0.87340   0.34842   0.01267  Uiso   1.00
O286   O     0.13928   0.84820   0.31220   0.01267  Uiso   1.00
O287   O     0.66064   0.64814   0.10668   0.01267  Uiso   1.00
O288   O     0.69247   0.68710   0.14342   0.01267  Uiso   1.00
O289   O     0.30332   0.58932   0.10981   0.01267  Uiso   1.00
O290   O     0.25991   0.62490   0.14197   0.01267  Uiso   1.00
O291   O     0.94410   0.85044   0.34765   0.01267  Uiso   1.00
O292   O     0.91524   0.80580   0.31253   0.01267  Uiso   1.00
O293   O     0.74798   0.58360   0.03033   0.01267  Uiso   1.00
O294   O     0.82100   0.59250   0.03090   0.01267  Uiso   1.00
O295   O     0.23770   0.50335   0.03027   0.01267  Uiso   1.00
O296   O     0.16577   0.49468   0.02982   0.01267  Uiso   1.00
Cu297  Cu    0.14495   0.89505   0.62720   0.01267  Uiso   1.00
Cu298  Cu    0.19391   0.85868   0.66816   0.01267  Uiso   1.00
H299   H     0.31420   0.40400   0.77400   0.01267  Uiso   1.00
H300   H     0.26680   0.52180   0.72510   0.01267  Uiso   1.00
H301   H     0.22520   0.54980   0.68300   0.01267  Uiso   1.00
H302   H     0.15340   0.52400   0.61240   0.01267  Uiso   1.00
H303   H     0.19930   0.42740   0.66020   0.01267  Uiso   1.00
H304   H     0.14750   0.37970   0.63570   0.01267  Uiso   1.00
H305   H     0.12820   0.31440   0.62300   0.01267  Uiso   1.00
H306   H     0.05540   0.24340   0.57150   0.01267  Uiso   1.00
H307   H     0.06000   0.36670   0.55530   0.01267  Uiso   1.00
H308   H     0.12450   0.78630   0.57130   0.01267  Uiso   1.00
H309   H     0.14660   0.66140   0.56840   0.01267  Uiso   1.00
H310   H     0.19780   0.73350   0.63260   0.01267  Uiso   1.00
H311   H     0.14660   0.60060   0.60750   0.01267  Uiso   1.00
H312   H     0.36230   0.48040   0.83690   0.01267  Uiso   1.00
H313   H     0.29060   0.53240   0.77260   0.01267  Uiso   1.00
C314   C     0.35480   0.39700   0.82570   0.01267  Uiso   1.00
C315   C     0.33420   0.43610   0.80840   0.01267  Uiso   1.00
C316   C     0.31600   0.43110   0.78300   0.01267  Uiso   1.00
C317   C     0.29940   0.46580   0.76960   0.01267  Uiso   1.00
C318   C     0.26260   0.49210   0.72370   0.01267  Uiso   1.00
C319   C     0.24040   0.46850   0.70010   0.01267  Uiso   1.00
C320   C     0.22370   0.48570   0.67280   0.01267  Uiso   1.00
C321   C     0.21800   0.53040   0.66780   0.01267  Uiso   1.00
C322   C     0.20370   0.54410   0.64400   0.01267  Uiso   1.00
C323   C     0.17070   0.51270   0.62760   0.01267  Uiso   1.00
C324   C     0.16650   0.47250   0.63410   0.01267  Uiso   1.00
C325   C     0.19720   0.45690   0.65650   0.01267  Uiso   1.00
C326   C     0.14430   0.44650   0.61550   0.01267  Uiso   1.00
C327   C     0.13680   0.39740   0.62050   0.01267  Uiso   1.00
C328   C     0.09300   0.35070   0.59000   0.01267  Uiso   1.00
C329   C     0.10730   0.31190   0.60810   0.01267  Uiso   1.00
C330   C     0.08770   0.27140   0.60150   0.01267  Uiso   1.00
C331   C     0.06160   0.27070   0.57900   0.01267  Uiso   1.00
C332   C     0.04120   0.30470   0.56430   0.01267  Uiso   1.00
C333   C     0.06500   0.34420   0.56870   0.01267  Uiso   1.00
C334   C     0.01020   0.30010   0.54070   0.01267  Uiso   1.00
C335   C     0.16110   0.80760   0.61960   0.01267  Uiso   1.00
C336   C     0.15960   0.76510   0.60500   0.01267  Uiso   1.00
C337   C     0.13590   0.76160   0.58020   0.01267  Uiso   1.00
C338   C     0.12770   0.72050   0.56700   0.01267  Uiso   1.00
C339   C     0.14710   0.68740   0.57900   0.01267  Uiso   1.00
C340   C     0.16800   0.68840   0.60600   0.01267  Uiso   1.00
C341   C     0.17810   0.73030   0.61690   0.01267  Uiso   1.00
C342   C     0.10250   0.71550   0.54170   0.01267  Uiso   1.00
C343   C     0.17180   0.61120   0.61620   0.01267  Uiso   1.00
C344   C     0.10010   0.23730   0.61810   0.01267  Uiso   1.00
C345   C     0.20400   0.59030   0.63390   0.01267  Uiso   1.00
C346   C     0.34310   0.47720   0.82100   0.01267  Uiso   1.00
C347   C     0.32290   0.51110   0.80910   0.01267  Uiso   1.00
C348   C     0.30220   0.50840   0.78220   0.01267  Uiso   1.00
C349   C     0.32740   0.55180   0.82410   0.01267  Uiso   1.00
N350   N     0.27440   0.46460   0.74100   0.01267  Uiso   1.00
N351   N     0.25340   0.42380   0.73690   0.01267  Uiso   1.00
N352   N     0.24220   0.43400   0.70770   0.01267  Uiso   1.00
N353   N     0.13140   0.45150   0.58860   0.01267  Uiso   1.00
N354   N     0.11510   0.41690   0.57620   0.01267  Uiso   1.00
N355   N     0.11240   0.38790   0.59850   0.01267  Uiso   1.00
N356   N     0.18940   0.65140   0.61600   0.01267  Uiso   1.00
N357   N     0.22090   0.65630   0.63680   0.01267  Uiso   1.00
N358   N     0.22820   0.61370   0.64430   0.01267  Uiso   1.00
O359   O     0.37340   0.40126   0.84842   0.01267  Uiso   1.00
O360   O     0.34820   0.36072   0.81220   0.01267  Uiso   1.00
O361   O     0.14814   0.83936   0.60668   0.01267  Uiso   1.00
O362   O     0.18710   0.80753   0.64342   0.01267  Uiso   1.00
O363   O     0.08932   0.19668   0.60981   0.01267  Uiso   1.00
O364   O     0.12490   0.24009   0.64197   0.01267  Uiso   1.00
O365   O     0.35044   0.55590   0.84765   0.01267  Uiso   1.00
O366   O     0.30580   0.58476   0.81253   0.01267  Uiso   1.00
O367   O     0.08360   0.75202   0.53033   0.01267  Uiso   1.00
O368   O     0.09250   0.67900   0.53090   0.01267  Uiso   1.00
O369   O     0.00335   0.26230   0.53027   0.01267  Uiso   1.00
O370   O     0.99468   0.33423   0.52982   0.01267  Uiso   1.00
Cu371  Cu    0.64495   0.39505   0.12720   0.01267  Uiso   1.00
Cu372  Cu    0.69391   0.35868   0.16816   0.01267  Uiso   1.00
H373   H     0.81420   0.90400   0.27400   0.01267  Uiso   1.00
H374   H     0.76680   0.02180   0.22510   0.01267  Uiso   1.00
H375   H     0.72520   0.04980   0.18300   0.01267  Uiso   1.00
H376   H     0.65340   0.02400   0.11240   0.01267  Uiso   1.00
H377   H     0.69930   0.92740   0.16020   0.01267  Uiso   1.00
H378   H     0.64750   0.87970   0.13570   0.01267  Uiso   1.00
H379   H     0.62820   0.81440   0.12300   0.01267  Uiso   1.00
H380   H     0.55540   0.74340   0.07150   0.01267  Uiso   1.00
H381   H     0.56000   0.86670   0.05530   0.01267  Uiso   1.00
H382   H     0.62450   0.28630   0.07130   0.01267  Uiso   1.00
H383   H     0.64660   0.16140   0.06840   0.01267  Uiso   1.00
H384   H     0.69780   0.23350   0.13260   0.01267  Uiso   1.00
H385   H     0.64660   0.10060   0.10750   0.01267  Uiso   1.00
H386   H     0.86230   0.98040   0.33690   0.01267  Uiso   1.00
H387   H     0.79060   0.03240   0.27260   0.01267  Uiso   1.00
C388   C     0.85480   0.89700   0.32570   0.01267  Uiso   1.00
C389   C     0.83420   0.93610   0.30840   0.01267  Uiso   1.00
C390   C     0.81600   0.93110   0.28300   0.01267  Uiso   1.00
C391   C     0.79940   0.96580   0.26960   0.01267  Uiso   1.00
C392   C     0.76260   0.99210   0.22370   0.01267  Uiso   1.00
C393   C     0.74040   0.96850   0.20010   0.01267  Uiso   1.00
C394   C     0.72370   0.98570   0.17280   0.01267  Uiso   1.00
C395   C     0.71800   0.03040   0.16780   0.01267  Uiso   1.00
C396   C     0.70370   0.04410   0.14400   0.01267  Uiso   1.00
C397   C     0.67070   0.01270   0.12760   0.01267  Uiso   1.00
C398   C     0.66650   0.97250   0.13410   0.01267  Uiso   1.00
C399   C     0.69720   0.95690   0.15650   0.01267  Uiso   1.00
C400   C     0.64430   0.94650   0.11550   0.01267  Uiso   1.00
C401   C     0.63680   0.89740   0.12050   0.01267  Uiso   1.00
C402   C     0.59300   0.85070   0.09000   0.01267  Uiso   1.00
C403   C     0.60730   0.81190   0.10810   0.01267  Uiso   1.00
C404   C     0.58770   0.77140   0.10150   0.01267  Uiso   1.00
C405   C     0.56160   0.77070   0.07900   0.01267  Uiso   1.00
C406   C     0.54120   0.80470   0.06430   0.01267  Uiso   1.00
C407   C     0.56500   0.84420   0.06870   0.01267  Uiso   1.00
C408   C     0.51020   0.80010   0.04070   0.01267  Uiso   1.00
C409   C     0.66110   0.30760   0.11960   0.01267  Uiso   1.00
C410   C     0.65960   0.26510   0.10500   0.01267  Uiso   1.00
C411   C     0.63590   0.26160   0.08020   0.01267  Uiso   1.00
C412   C     0.62770   0.22050   0.06700   0.01267  Uiso   1.00
C413   C     0.64710   0.18740   0.07900   0.01267  Uiso   1.00
C414   C     0.66800   0.18840   0.10600   0.01267  Uiso   1.00
C415   C     0.67810   0.23030   0.11690   0.01267  Uiso   1.00
C416   C     0.60250   0.21550   0.04170   0.01267  Uiso   1.00
C417   C     0.67180   0.11120   0.11620   0.01267  Uiso   1.00
C418   C     0.60010   0.73730   0.11810   0.01267  Uiso   1.00
C419   C     0.70400   0.09030   0.13390   0.01267  Uiso   1.00
C420   C     0.84310   0.97720   0.32100   0.01267  Uiso   1.00
C421   C     0.82290   0.01110   0.30910   0.01267  Uiso   1.00
C422   C     0.80220   0.00840   0.28220   0.01267  Uiso   1.00
C423   C     0.82740   0.05180   0.32410   0.01267  Uiso   1.00
N424   N     0.77440   0.96460   0.24100   0.01267  Uiso   1.00
N425   N     0.75340   0.92380   0.23690   0.01267  Uiso   1.00
N426   N     0.74220   0.93400   0.20770   0.01267  Uiso   1.00
N427   N     0.63140   0.95150   0.08860   0.01267  Uiso   1.00
N428   N     0.61510   0.91690   0.07620   0.01267  Uiso   1.00
N429   N     0.61240   0.88790   0.09850   0.01267  Uiso   1.00
N430   N     0.68940   0.15140   0.11600   0.01267  Uiso   1.00
N431   N     0.72090   0.15630   0.13680   0.01267  Uiso   1.00
N432   N     0.72820   0.11370   0.14430   0.01267  Uiso   1.00
O433   O     0.87340   0.90126   0.34842   0.01267  Uiso   1.00
O434   O     0.84820   0.86072   0.31220   0.01267  Uiso   1.00
O435   O     0.64814   0.33936   0.10668   0.01267  Uiso   1.00
O436   O     0.68710   0.30753   0.14342   0.01267  Uiso   1.00
O437   O     0.58932   0.69668   0.10981   0.01267  Uiso   1.00
O438   O     0.62490   0.74009   0.14197   0.01267  Uiso   1.00
O439   O     0.85044   0.05590   0.34765   0.01267  Uiso   1.00
O440   O     0.80580   0.08476   0.31253   0.01267  Uiso   1.00
O441   O     0.58360   0.25202   0.03033   0.01267  Uiso   1.00
O442   O     0.59250   0.17900   0.03090   0.01267  Uiso   1.00
O443   O     0.50335   0.76230   0.03027   0.01267  Uiso   1.00
O444   O     0.49468   0.83423   0.02982   0.01267  Uiso   1.00
Cu445  Cu    0.85505   0.10495   0.62720   0.01267  Uiso   1.00
Cu446  Cu    0.80609   0.14132   0.66816   0.01267  Uiso   1.00
H447   H     0.68580   0.59600   0.77400   0.01267  Uiso   1.00
H448   H     0.73320   0.47820   0.72510   0.01267  Uiso   1.00
H449   H     0.77480   0.45020   0.68300   0.01267  Uiso   1.00
H450   H     0.84660   0.47600   0.61240   0.01267  Uiso   1.00
H451   H     0.80070   0.57260   0.66020   0.01267  Uiso   1.00
H452   H     0.85250   0.62030   0.63570   0.01267  Uiso   1.00
H453   H     0.87180   0.68560   0.62300   0.01267  Uiso   1.00
H454   H     0.94460   0.75660   0.57150   0.01267  Uiso   1.00
H455   H     0.94000   0.63330   0.55530   0.01267  Uiso   1.00
H456   H     0.87550   0.21370   0.57130   0.01267  Uiso   1.00
H457   H     0.85340   0.33860   0.56840   0.01267  Uiso   1.00
H458   H     0.80220   0.26650   0.63260   0.01267  Uiso   1.00
H459   H     0.85340   0.39940   0.60750   0.01267  Uiso   1.00
H460   H     0.63770   0.51960   0.83690   0.01267  Uiso   1.00
H461   H     0.70940   0.46760   0.77260   0.01267  Uiso   1.00
C462   C     0.64520   0.60300   0.82570   0.01267  Uiso   1.00
C463   C     0.66580   0.56390   0.80840   0.01267  Uiso   1.00
C464   C     0.68400   0.56890   0.78300   0.01267  Uiso   1.00
C465   C     0.70060   0.53420   0.76960   0.01267  Uiso   1.00
C466   C     0.73740   0.50790   0.72370   0.01267  Uiso   1.00
C467   C     0.75960   0.53150   0.70010   0.01267  Uiso   1.00
C468   C     0.77630   0.51430   0.67280   0.01267  Uiso   1.00
C469   C     0.78200   0.46960   0.66780   0.01267  Uiso   1.00
C470   C     0.79630   0.45590   0.64400   0.01267  Uiso   1.00
C471   C     0.82930   0.48730   0.62760   0.01267  Uiso   1.00
C472   C     0.83350   0.52750   0.63410   0.01267  Uiso   1.00
C473   C     0.80280   0.54310   0.65650   0.01267  Uiso   1.00
C474   C     0.85570   0.55350   0.61550   0.01267  Uiso   1.00
C475   C     0.86320   0.60260   0.62050   0.01267  Uiso   1.00
C476   C     0.90700   0.64930   0.59000   0.01267  Uiso   1.00
C477   C     0.89270   0.68810   0.60810   0.01267  Uiso   1.00
C478   C     0.91230   0.72860   0.60150   0.01267  Uiso   1.00
C479   C     0.93840   0.72930   0.57900   0.01267  Uiso   1.00
C480   C     0.95880   0.69530   0.56430   0.01267  Uiso   1.00
C481   C     0.93500   0.65580   0.56870   0.01267  Uiso   1.00
C482   C     0.98980   0.69990   0.54070   0.01267  Uiso   1.00
C483   C     0.83890   0.19240   0.61960   0.01267  Uiso   1.00
C484   C     0.84040   0.23490   0.60500   0.01267  Uiso   1.00
C485   C     0.86410   0.23840   0.58020   0.01267  Uiso   1.00
C486   C     0.87230   0.27950   0.56700   0.01267  Uiso   1.00
C487   C     0.85290   0.31260   0.57900   0.01267  Uiso   1.00
C488   C     0.83200   0.31160   0.60600   0.01267  Uiso   1.00
C489   C     0.82190   0.26970   0.61690   0.01267  Uiso   1.00
C490   C     0.89750   0.28450   0.54170   0.01267  Uiso   1.00
C491   C     0.82820   0.38880   0.61620   0.01267  Uiso   1.00
C492   C     0.89990   0.76270   0.61810   0.01267  Uiso   1.00
C493   C     0.79600   0.40970   0.63390   0.01267  Uiso   1.00
C494   C     0.65690   0.52280   0.82100   0.01267  Uiso   1.00
C495   C     0.67710   0.48890   0.80910   0.01267  Uiso   1.00
C496   C     0.69780   0.49160   0.78220   0.01267  Uiso   1.00
C497   C     0.67260   0.44820   0.82410   0.01267  Uiso   1.00
N498   N     0.72560   0.53540   0.74100   0.01267  Uiso   1.00
N499   N     0.74660   0.57620   0.73690   0.01267  Uiso   1.00
N500   N     0.75780   0.56600   0.70770   0.01267  Uiso   1.00
N501   N     0.86860   0.54850   0.58860   0.01267  Uiso   1.00
N502   N     0.88490   0.58310   0.57620   0.01267  Uiso   1.00
N503   N     0.88760   0.61210   0.59850   0.01267  Uiso   1.00
N504   N     0.81060   0.34860   0.61600   0.01267  Uiso   1.00
N505   N     0.77910   0.34370   0.63680   0.01267  Uiso   1.00
N506   N     0.77180   0.38630   0.64430   0.01267  Uiso   1.00
O507   O     0.62660   0.59874   0.84842   0.01267  Uiso   1.00
O508   O     0.65180   0.63928   0.81220   0.01267  Uiso   1.00
O509   O     0.85186   0.16064   0.60668   0.01267  Uiso   1.00
O510   O     0.81290   0.19247   0.64342   0.01267  Uiso   1.00
O511   O     0.91068   0.80332   0.60981   0.01267  Uiso   1.00
O512   O     0.87510   0.75991   0.64197   0.01267  Uiso   1.00
O513   O     0.64956   0.44410   0.84765   0.01267  Uiso   1.00
O514   O     0.69420   0.41524   0.81253   0.01267  Uiso   1.00
O515   O     0.91640   0.24798   0.53033   0.01267  Uiso   1.00
O516   O     0.90750   0.32100   0.53090   0.01267  Uiso   1.00
O517   O     0.99665   0.73770   0.53027   0.01267  Uiso   1.00
O518   O     0.00532   0.66577   0.52982   0.01267  Uiso   1.00
Cu519  Cu    0.35505   0.60495   0.12720   0.01267  Uiso   1.00
Cu520  Cu    0.30609   0.64132   0.16816   0.01267  Uiso   1.00
H521   H     0.18580   0.09600   0.27400   0.01267  Uiso   1.00
H522   H     0.23320   0.97820   0.22510   0.01267  Uiso   1.00
H523   H     0.27480   0.95020   0.18300   0.01267  Uiso   1.00
H524   H     0.34660   0.97600   0.11240   0.01267  Uiso   1.00
H525   H     0.30070   0.07260   0.16020   0.01267  Uiso   1.00
H526   H     0.35250   0.12030   0.13570   0.01267  Uiso   1.00
H527   H     0.37180   0.18560   0.12300   0.01267  Uiso   1.00
H528   H     0.44460   0.25660   0.07150   0.01267  Uiso   1.00
H529   H     0.44000   0.13330   0.05530   0.01267  Uiso   1.00
H530   H     0.37550   0.71370   0.07130   0.01267  Uiso   1.00
H531   H     0.35340   0.83860   0.06840   0.01267  Uiso   1.00
H532   H     0.30220   0.76650   0.13260   0.01267  Uiso   1.00
H533   H     0.35340   0.89940   0.10750   0.01267  Uiso   1.00
H534   H     0.13770   0.01960   0.33690   0.01267  Uiso   1.00
H535   H     0.20940   0.96760   0.27260   0.01267  Uiso   1.00
C536   C     0.14520   0.10300   0.32570   0.01267  Uiso   1.00
C537   C     0.16580   0.06390   0.30840   0.01267  Uiso   1.00
C538   C     0.18400   0.06890   0.28300   0.01267  Uiso   1.00
C539   C     0.20060   0.03420   0.26960   0.01267  Uiso   1.00
C540   C     0.23740   0.00790   0.22370   0.01267  Uiso   1.00
C541   C     0.25960   0.03150   0.20010   0.01267  Uiso   1.00
C542   C     0.27630   0.01430   0.17280   0.01267  Uiso   1.00
C543   C     0.28200   0.96960   0.16780   0.01267  Uiso   1.00
C544   C     0.29630   0.95590   0.14400   0.01267  Uiso   1.00
C545   C     0.32930   0.98730   0.12760   0.01267  Uiso   1.00
C546   C     0.33350   0.02750   0.13410   0.01267  Uiso   1.00
C547   C     0.30280   0.04310   0.15650   0.01267  Uiso   1.00
C548   C     0.35570   0.05350   0.11550   0.01267  Uiso   1.00
C549   C     0.36320   0.10260   0.12050   0.01267  Uiso   1.00
C550   C     0.40700   0.14930   0.09000   0.01267  Uiso   1.00
C551   C     0.39270   0.18810   0.10810   0.01267  Uiso   1.00
C552   C     0.41230   0.22860   0.10150   0.01267  Uiso   1.00
C553   C     0.43840   0.22930   0.07900   0.01267  Uiso   1.00
C554   C     0.45880   0.19530   0.06430   0.01267  Uiso   1.00
C555   C     0.43500   0.15580   0.06870   0.01267  Uiso   1.00
C556   C     0.48980   0.19990   0.04070   0.01267  Uiso   1.00
C557   C     0.33890   0.69240   0.11960   0.01267  Uiso   1.00
C558   C     0.34040   0.73490   0.10500   0.01267  Uiso   1.00
C559   C     0.36410   0.73840   0.08020   0.01267  Uiso   1.00
C560   C     0.37230   0.77950   0.06700   0.01267  Uiso   1.00
C561   C     0.35290   0.81260   0.07900   0.01267  Uiso   1.00
C562   C     0.33200   0.81160   0.10600   0.01267  Uiso   1.00
C563   C     0.32190   0.76970   0.11690   0.01267  Uiso   1.00
C564   C     0.39750   0.78450   0.04170   0.01267  Uiso   1.00
C565   C     0.32820   0.88880   0.11620   0.01267  Uiso   1.00
C566   C     0.39990   0.26270   0.11810   0.01267  Uiso   1.00
C567   C     0.29600   0.90970   0.13390   0.01267  Uiso   1.00
C568   C     0.15690   0.02280   0.32100   0.01267  Uiso   1.00
C569   C     0.17710   0.98890   0.30910   0.01267  Uiso   1.00
C570   C     0.19780   0.99160   0.28220   0.01267  Uiso   1.00
C571   C     0.17260   0.94820   0.32410   0.01267  Uiso   1.00
N572   N     0.22560   0.03540   0.24100   0.01267  Uiso   1.00
N573   N     0.24660   0.07620   0.23690   0.01267  Uiso   1.00
N574   N     0.25780   0.06600   0.20770   0.01267  Uiso   1.00
N575   N     0.36860   0.04850   0.08860   0.01267  Uiso   1.00
N576   N     0.38490   0.08310   0.07620   0.01267  Uiso   1.00
N577   N     0.38760   0.11210   0.09850   0.01267  Uiso   1.00
N578   N     0.31060   0.84860   0.11600   0.01267  Uiso   1.00
N579   N     0.27910   0.84370   0.13680   0.01267  Uiso   1.00
N580   N     0.27180   0.88630   0.14430   0.01267  Uiso   1.00
O581   O     0.12660   0.09874   0.34842   0.01267  Uiso   1.00
O582   O     0.15180   0.13928   0.31220   0.01267  Uiso   1.00
O583   O     0.35186   0.66064   0.10668   0.01267  Uiso   1.00
O584   O     0.31290   0.69247   0.14342   0.01267  Uiso   1.00
O585   O     0.41068   0.30332   0.10981   0.01267  Uiso   1.00
O586   O     0.37510   0.25991   0.14197   0.01267  Uiso   1.00
O587   O     0.14956   0.94410   0.34765   0.01267  Uiso   1.00
O588   O     0.19420   0.91524   0.31253   0.01267  Uiso   1.00
O589   O     0.41640   0.74798   0.03033   0.01267  Uiso   1.00
O590   O     0.40750   0.82100   0.03090   0.01267  Uiso   1.00
O591   O     0.49665   0.23770   0.03027   0.01267  Uiso   1.00
O592   O     0.50532   0.16577   0.02982   0.01267  Uiso   1.00
Cu593  Cu    0.10495   0.14495   0.37280   0.01267  Uiso   1.00
Cu594  Cu    0.14132   0.19391   0.33184   0.01267  Uiso   1.00
H595   H     0.59600   0.31420   0.22600   0.01267  Uiso   1.00
H596   H     0.47820   0.26680   0.27490   0.01267  Uiso   1.00
H597   H     0.45020   0.22520   0.31700   0.01267  Uiso   1.00
H598   H     0.47600   0.15340   0.38760   0.01267  Uiso   1.00
H599   H     0.57260   0.19930   0.33980   0.01267  Uiso   1.00
H600   H     0.62030   0.14750   0.36430   0.01267  Uiso   1.00
H601   H     0.68560   0.12820   0.37700   0.01267  Uiso   1.00
H602   H     0.75660   0.05540   0.42850   0.01267  Uiso   1.00
H603   H     0.63330   0.06000   0.44470   0.01267  Uiso   1.00
H604   H     0.21370   0.12450   0.42870   0.01267  Uiso   1.00
H605   H     0.33860   0.14660   0.43160   0.01267  Uiso   1.00
H606   H     0.26650   0.19780   0.36740   0.01267  Uiso   1.00
H607   H     0.39940   0.14660   0.39250   0.01267  Uiso   1.00
H608   H     0.51960   0.36230   0.16310   0.01267  Uiso   1.00
H609   H     0.46760   0.29060   0.22740   0.01267  Uiso   1.00
C610   C     0.60300   0.35480   0.17430   0.01267  Uiso   1.00
C611   C     0.56390   0.33420   0.19160   0.01267  Uiso   1.00
C612   C     0.56890   0.31600   0.21700   0.01267  Uiso   1.00
C613   C     0.53420   0.29940   0.23040   0.01267  Uiso   1.00
C614   C     0.50790   0.26260   0.27630   0.01267  Uiso   1.00
C615   C     0.53150   0.24040   0.29990   0.01267  Uiso   1.00
C616   C     0.51430   0.22370   0.32720   0.01267  Uiso   1.00
C617   C     0.46960   0.21800   0.33220   0.01267  Uiso   1.00
C618   C     0.45590   0.20370   0.35600   0.01267  Uiso   1.00
C619   C     0.48730   0.17070   0.37240   0.01267  Uiso   1.00
C620   C     0.52750   0.16650   0.36590   0.01267  Uiso   1.00
C621   C     0.54310   0.19720   0.34350   0.01267  Uiso   1.00
C622   C     0.55350   0.14430   0.38450   0.01267  Uiso   1.00
C623   C     0.60260   0.13680   0.37950   0.01267  Uiso   1.00
C624   C     0.64930   0.09300   0.41000   0.01267  Uiso   1.00
C625   C     0.68810   0.10730   0.39190   0.01267  Uiso   1.00
C626   C     0.72860   0.08770   0.39850   0.01267  Uiso   1.00
C627   C     0.72930   0.06160   0.42100   0.01267  Uiso   1.00
C628   C     0.69530   0.04120   0.43570   0.01267  Uiso   1.00
C629   C     0.65580   0.06500   0.43130   0.01267  Uiso   1.00
C630   C     0.69990   0.01020   0.45930   0.01267  Uiso   1.00
C631   C     0.19240   0.16110   0.38040   0.01267  Uiso   1.00
C632   C     0.23490   0.15960   0.39500   0.01267  Uiso   1.00
C633   C     0.23840   0.13590   0.41980   0.01267  Uiso   1.00
C634   C     0.27950   0.12770   0.43300   0.01267  Uiso   1.00
C635   C     0.31260   0.14710   0.42100   0.01267  Uiso   1.00
C636   C     0.31160   0.16800   0.39400   0.01267  Uiso   1.00
C637   C     0.26970   0.17810   0.38310   0.01267  Uiso   1.00
C638   C     0.28450   0.10250   0.45830   0.01267  Uiso   1.00
C639   C     0.38880   0.17180   0.38380   0.01267  Uiso   1.00
C640   C     0.76270   0.10010   0.38190   0.01267  Uiso   1.00
C641   C     0.40970   0.20400   0.36610   0.01267  Uiso   1.00
C642   C     0.52280   0.34310   0.17900   0.01267  Uiso   1.00
C643   C     0.48890   0.32290   0.19090   0.01267  Uiso   1.00
C644   C     0.49160   0.30220   0.21780   0.01267  Uiso   1.00
C645   C     0.44820   0.32740   0.17590   0.01267  Uiso   1.00
N646   N     0.53540   0.27440   0.25900   0.01267  Uiso   1.00
N647   N     0.57620   0.25340   0.26310   0.01267  Uiso   1.00
N648   N     0.56600   0.24220   0.29230   0.01267  Uiso   1.00
N649   N     0.54850   0.13140   0.41140   0.01267  Uiso   1.00
N650   N     0.58310   0.11510   0.42380   0.01267  Uiso   1.00
N651   N     0.61210   0.11240   0.40150   0.01267  Uiso   1.00
N652   N     0.34860   0.18940   0.38400   0.01267  Uiso   1.00
N653   N     0.34370   0.22090   0.36320   0.01267  Uiso   1.00
N654   N     0.38630   0.22820   0.35570   0.01267  Uiso   1.00
O655   O     0.59874   0.37340   0.15158   0.01267  Uiso   1.00
O656   O     0.63928   0.34820   0.18780   0.01267  Uiso   1.00
O657   O     0.16064   0.14814   0.39332   0.01267  Uiso   1.00
O658   O     0.19247   0.18710   0.35658   0.01267  Uiso   1.00
O659   O     0.80332   0.08932   0.39019   0.01267  Uiso   1.00
O660   O     0.75991   0.12490   0.35803   0.01267  Uiso   1.00
O661   O     0.44410   0.35044   0.15235   0.01267  Uiso   1.00
O662   O     0.41524   0.30580   0.18747   0.01267  Uiso   1.00
O663   O     0.24798   0.08360   0.46967   0.01267  Uiso   1.00
O664   O     0.32100   0.09250   0.46910   0.01267  Uiso   1.00
O665   O     0.73770   0.00335   0.46973   0.01267  Uiso   1.00
O666   O     0.66577   0.99468   0.47018   0.01267  Uiso   1.00
Cu667  Cu    0.60495   0.64495   0.87280   0.01267  Uiso   1.00
Cu668  Cu    0.64132   0.69391   0.83184   0.01267  Uiso   1.00
H669   H     0.09600   0.81420   0.72600   0.01267  Uiso   1.00
H670   H     0.97820   0.76680   0.77490   0.01267  Uiso   1.00
H671   H     0.95020   0.72520   0.81700   0.01267  Uiso   1.00
H672   H     0.97600   0.65340   0.88760   0.01267  Uiso   1.00
H673   H     0.07260   0.69930   0.83980   0.01267  Uiso   1.00
H674   H     0.12030   0.64750   0.86430   0.01267  Uiso   1.00
H675   H     0.18560   0.62820   0.87700   0.01267  Uiso   1.00
H676   H     0.25660   0.55540   0.92850   0.01267  Uiso   1.00
H677   H     0.13330   0.56000   0.94470   0.01267  Uiso   1.00
H678   H     0.71370   0.62450   0.92870   0.01267  Uiso   1.00
H679   H     0.83860   0.64660   0.93160   0.01267  Uiso   1.00
H680   H     0.76650   0.69780   0.86740   0.01267  Uiso   1.00
H681   H     0.89940   0.64660   0.89250   0.01267  Uiso   1.00
H682   H     0.01960   0.86230   0.66310   0.01267  Uiso   1.00
H683   H     0.96760   0.79060   0.72740   0.01267  Uiso   1.00
C684   C     0.10300   0.85480   0.67430   0.01267  Uiso   1.00
C685   C     0.06390   0.83420   0.69160   0.01267  Uiso   1.00
C686   C     0.06890   0.81600   0.71700   0.01267  Uiso   1.00
C687   C     0.03420   0.79940   0.73040   0.01267  Uiso   1.00
C688   C     0.00790   0.76260   0.77630   0.01267  Uiso   1.00
C689   C     0.03150   0.74040   0.79990   0.01267  Uiso   1.00
C690   C     0.01430   0.72370   0.82720   0.01267  Uiso   1.00
C691   C     0.96960   0.71800   0.83220   0.01267  Uiso   1.00
C692   C     0.95590   0.70370   0.85600   0.01267  Uiso   1.00
C693   C     0.98730   0.67070   0.87240   0.01267  Uiso   1.00
C694   C     0.02750   0.66650   0.86590   0.01267  Uiso   1.00
C695   C     0.04310   0.69720   0.84350   0.01267  Uiso   1.00
C696   C     0.05350   0.64430   0.88450   0.01267  Uiso   1.00
C697   C     0.10260   0.63680   0.87950   0.01267  Uiso   1.00
C698   C     0.14930   0.59300   0.91000   0.01267  Uiso   1.00
C699   C     0.18810   0.60730   0.89190   0.01267  Uiso   1.00
C700   C     0.22860   0.58770   0.89850   0.01267  Uiso   1.00
C701   C     0.22930   0.56160   0.92100   0.01267  Uiso   1.00
C702   C     0.19530   0.54120   0.93570   0.01267  Uiso   1.00
C703   C     0.15580   0.56500   0.93130   0.01267  Uiso   1.00
C704   C     0.19990   0.51020   0.95930   0.01267  Uiso   1.00
C705   C     0.69240   0.66110   0.88040   0.01267  Uiso   1.00
C706   C     0.73490   0.65960   0.89500   0.01267  Uiso   1.00
C707   C     0.73840   0.63590   0.91980   0.01267  Uiso   1.00
C708   C     0.77950   0.62770   0.93300   0.01267  Uiso   1.00
C709   C     0.81260   0.64710   0.92100   0.01267  Uiso   1.00
C710   C     0.81160   0.66800   0.89400   0.01267  Uiso   1.00
C711   C     0.76970   0.67810   0.88310   0.01267  Uiso   1.00
C712   C     0.78450   0.60250   0.95830   0.01267  Uiso   1.00
C713   C     0.88880   0.67180   0.88380   0.01267  Uiso   1.00
C714   C     0.26270   0.60010   0.88190   0.01267  Uiso   1.00
C715   C     0.90970   0.70400   0.86610   0.01267  Uiso   1.00
C716   C     0.02280   0.84310   0.67900   0.01267  Uiso   1.00
C717   C     0.98890   0.82290   0.69090   0.01267  Uiso   1.00
C718   C     0.99160   0.80220   0.71780   0.01267  Uiso   1.00
C719   C     0.94820   0.82740   0.67590   0.01267  Uiso   1.00
N720   N     0.03540   0.77440   0.75900   0.01267  Uiso   1.00
N721   N     0.07620   0.75340   0.76310   0.01267  Uiso   1.00
N722   N     0.06600   0.74220   0.79230   0.01267  Uiso   1.00
N723   N     0.04850   0.63140   0.91140   0.01267  Uiso   1.00
N724   N     0.08310   0.61510   0.92380   0.01267  Uiso   1.00
N725   N     0.11210   0.61240   0.90150   0.01267  Uiso   1.00
N726   N     0.84860   0.68940   0.88400   0.01267  Uiso   1.00
N727   N     0.84370   0.72090   0.86320   0.01267  Uiso   1.00
N728   N     0.88630   0.72820   0.85570   0.01267  Uiso   1.00
O729   O     0.09874   0.87340   0.65158   0.01267  Uiso   1.00
O730   O     0.13928   0.84820   0.68780   0.01267  Uiso   1.00
O731   O     0.66064   0.64814   0.89332   0.01267  Uiso   1.00
O732   O     0.69247   0.68710   0.85658   0.01267  Uiso   1.00
O733   O     0.30332   0.58932   0.89019   0.01267  Uiso   1.00
O734   O     0.25991   0.62490   0.85803   0.01267  Uiso   1.00
O735   O     0.94410   0.85044   0.65235   0.01267  Uiso   1.00
O736   O     0.91524   0.80580   0.68747   0.01267  Uiso   1.00
O737   O     0.74798   0.58360   0.96967   0.01267  Uiso   1.00
O738   O     0.82100   0.59250   0.96910   0.01267  Uiso   1.00
O739   O     0.23770   0.50335   0.96973   0.01267  Uiso   1.00
O740   O     0.16577   0.49468   0.97018   0.01267  Uiso   1.00
Cu741  Cu    0.89505   0.85505   0.37280   0.01267  Uiso   1.00
Cu742  Cu    0.85868   0.80609   0.33184   0.01267  Uiso   1.00
H743   H     0.40400   0.68580   0.22600   0.01267  Uiso   1.00
H744   H     0.52180   0.73320   0.27490   0.01267  Uiso   1.00
H745   H     0.54980   0.77480   0.31700   0.01267  Uiso   1.00
H746   H     0.52400   0.84660   0.38760   0.01267  Uiso   1.00
H747   H     0.42740   0.80070   0.33980   0.01267  Uiso   1.00
H748   H     0.37970   0.85250   0.36430   0.01267  Uiso   1.00
H749   H     0.31440   0.87180   0.37700   0.01267  Uiso   1.00
H750   H     0.24340   0.94460   0.42850   0.01267  Uiso   1.00
H751   H     0.36670   0.94000   0.44470   0.01267  Uiso   1.00
H752   H     0.78630   0.87550   0.42870   0.01267  Uiso   1.00
H753   H     0.66140   0.85340   0.43160   0.01267  Uiso   1.00
H754   H     0.73350   0.80220   0.36740   0.01267  Uiso   1.00
H755   H     0.60060   0.85340   0.39250   0.01267  Uiso   1.00
H756   H     0.48040   0.63770   0.16310   0.01267  Uiso   1.00
H757   H     0.53240   0.70940   0.22740   0.01267  Uiso   1.00
C758   C     0.39700   0.64520   0.17430   0.01267  Uiso   1.00
C759   C     0.43610   0.66580   0.19160   0.01267  Uiso   1.00
C760   C     0.43110   0.68400   0.21700   0.01267  Uiso   1.00
C761   C     0.46580   0.70060   0.23040   0.01267  Uiso   1.00
C762   C     0.49210   0.73740   0.27630   0.01267  Uiso   1.00
C763   C     0.46850   0.75960   0.29990   0.01267  Uiso   1.00
C764   C     0.48570   0.77630   0.32720   0.01267  Uiso   1.00
C765   C     0.53040   0.78200   0.33220   0.01267  Uiso   1.00
C766   C     0.54410   0.79630   0.35600   0.01267  Uiso   1.00
C767   C     0.51270   0.82930   0.37240   0.01267  Uiso   1.00
C768   C     0.47250   0.83350   0.36590   0.01267  Uiso   1.00
C769   C     0.45690   0.80280   0.34350   0.01267  Uiso   1.00
C770   C     0.44650   0.85570   0.38450   0.01267  Uiso   1.00
C771   C     0.39740   0.86320   0.37950   0.01267  Uiso   1.00
C772   C     0.35070   0.90700   0.41000   0.01267  Uiso   1.00
C773   C     0.31190   0.89270   0.39190   0.01267  Uiso   1.00
C774   C     0.27140   0.91230   0.39850   0.01267  Uiso   1.00
C775   C     0.27070   0.93840   0.42100   0.01267  Uiso   1.00
C776   C     0.30470   0.95880   0.43570   0.01267  Uiso   1.00
C777   C     0.34420   0.93500   0.43130   0.01267  Uiso   1.00
C778   C     0.30010   0.98980   0.45930   0.01267  Uiso   1.00
C779   C     0.80760   0.83890   0.38040   0.01267  Uiso   1.00
C780   C     0.76510   0.84040   0.39500   0.01267  Uiso   1.00
C781   C     0.76160   0.86410   0.41980   0.01267  Uiso   1.00
C782   C     0.72050   0.87230   0.43300   0.01267  Uiso   1.00
C783   C     0.68740   0.85290   0.42100   0.01267  Uiso   1.00
C784   C     0.68840   0.83200   0.39400   0.01267  Uiso   1.00
C785   C     0.73030   0.82190   0.38310   0.01267  Uiso   1.00
C786   C     0.71550   0.89750   0.45830   0.01267  Uiso   1.00
C787   C     0.61120   0.82820   0.38380   0.01267  Uiso   1.00
C788   C     0.23730   0.89990   0.38190   0.01267  Uiso   1.00
C789   C     0.59030   0.79600   0.36610   0.01267  Uiso   1.00
C790   C     0.47720   0.65690   0.17900   0.01267  Uiso   1.00
C791   C     0.51110   0.67710   0.19090   0.01267  Uiso   1.00
C792   C     0.50840   0.69780   0.21780   0.01267  Uiso   1.00
C793   C     0.55180   0.67260   0.17590   0.01267  Uiso   1.00
N794   N     0.46460   0.72560   0.25900   0.01267  Uiso   1.00
N795   N     0.42380   0.74660   0.26310   0.01267  Uiso   1.00
N796   N     0.43400   0.75780   0.29230   0.01267  Uiso   1.00
N797   N     0.45150   0.86860   0.41140   0.01267  Uiso   1.00
N798   N     0.41690   0.88490   0.42380   0.01267  Uiso   1.00
N799   N     0.38790   0.88760   0.40150   0.01267  Uiso   1.00
N800   N     0.65140   0.81060   0.38400   0.01267  Uiso   1.00
N801   N     0.65630   0.77910   0.36320   0.01267  Uiso   1.00
N802   N     0.61370   0.77180   0.35570   0.01267  Uiso   1.00
O803   O     0.40126   0.62660   0.15158   0.01267  Uiso   1.00
O804   O     0.36072   0.65180   0.18780   0.01267  Uiso   1.00
O805   O     0.83936   0.85186   0.39332   0.01267  Uiso   1.00
O806   O     0.80753   0.81290   0.35658   0.01267  Uiso   1.00
O807   O     0.19668   0.91068   0.39019   0.01267  Uiso   1.00
O808   O     0.24009   0.87510   0.35803   0.01267  Uiso   1.00
O809   O     0.55590   0.64956   0.15235   0.01267  Uiso   1.00
O810   O     0.58476   0.69420   0.18747   0.01267  Uiso   1.00
O811   O     0.75202   0.91640   0.46967   0.01267  Uiso   1.00
O812   O     0.67900   0.90750   0.46910   0.01267  Uiso   1.00
O813   O     0.26230   0.99665   0.46973   0.01267  Uiso   1.00
O814   O     0.33423   0.00532   0.47018   0.01267  Uiso   1.00
Cu815  Cu    0.39505   0.35505   0.87280   0.01267  Uiso   1.00
Cu816  Cu    0.35868   0.30609   0.83184   0.01267  Uiso   1.00
H817   H     0.90400   0.18580   0.72600   0.01267  Uiso   1.00
H818   H     0.02180   0.23320   0.77490   0.01267  Uiso   1.00
H819   H     0.04980   0.27480   0.81700   0.01267  Uiso   1.00
H820   H     0.02400   0.34660   0.88760   0.01267  Uiso   1.00
H821   H     0.92740   0.30070   0.83980   0.01267  Uiso   1.00
H822   H     0.87970   0.35250   0.86430   0.01267  Uiso   1.00
H823   H     0.81440   0.37180   0.87700   0.01267  Uiso   1.00
H824   H     0.74340   0.44460   0.92850   0.01267  Uiso   1.00
H825   H     0.86670   0.44000   0.94470   0.01267  Uiso   1.00
H826   H     0.28630   0.37550   0.92870   0.01267  Uiso   1.00
H827   H     0.16140   0.35340   0.93160   0.01267  Uiso   1.00
H828   H     0.23350   0.30220   0.86740   0.01267  Uiso   1.00
H829   H     0.10060   0.35340   0.89250   0.01267  Uiso   1.00
H830   H     0.98040   0.13770   0.66310   0.01267  Uiso   1.00
H831   H     0.03240   0.20940   0.72740   0.01267  Uiso   1.00
C832   C     0.89700   0.14520   0.67430   0.01267  Uiso   1.00
C833   C     0.93610   0.16580   0.69160   0.01267  Uiso   1.00
C834   C     0.93110   0.18400   0.71700   0.01267  Uiso   1.00
C835   C     0.96580   0.20060   0.73040   0.01267  Uiso   1.00
C836   C     0.99210   0.23740   0.77630   0.01267  Uiso   1.00
C837   C     0.96850   0.25960   0.79990   0.01267  Uiso   1.00
C838   C     0.98570   0.27630   0.82720   0.01267  Uiso   1.00
C839   C     0.03040   0.28200   0.83220   0.01267  Uiso   1.00
C840   C     0.04410   0.29630   0.85600   0.01267  Uiso   1.00
C841   C     0.01270   0.32930   0.87240   0.01267  Uiso   1.00
C842   C     0.97250   0.33350   0.86590   0.01267  Uiso   1.00
C843   C     0.95690   0.30280   0.84350   0.01267  Uiso   1.00
C844   C     0.94650   0.35570   0.88450   0.01267  Uiso   1.00
C845   C     0.89740   0.36320   0.87950   0.01267  Uiso   1.00
C846   C     0.85070   0.40700   0.91000   0.01267  Uiso   1.00
C847   C     0.81190   0.39270   0.89190   0.01267  Uiso   1.00
C848   C     0.77140   0.41230   0.89850   0.01267  Uiso   1.00
C849   C     0.77070   0.43840   0.92100   0.01267  Uiso   1.00
C850   C     0.80470   0.45880   0.93570   0.01267  Uiso   1.00
C851   C     0.84420   0.43500   0.93130   0.01267  Uiso   1.00
C852   C     0.80010   0.48980   0.95930   0.01267  Uiso   1.00
C853   C     0.30760   0.33890   0.88040   0.01267  Uiso   1.00
C854   C     0.26510   0.34040   0.89500   0.01267  Uiso   1.00
C855   C     0.26160   0.36410   0.91980   0.01267  Uiso   1.00
C856   C     0.22050   0.37230   0.93300   0.01267  Uiso   1.00
C857   C     0.18740   0.35290   0.92100   0.01267  Uiso   1.00
C858   C     0.18840   0.33200   0.89400   0.01267  Uiso   1.00
C859   C     0.23030   0.32190   0.88310   0.01267  Uiso   1.00
C860   C     0.21550   0.39750   0.95830   0.01267  Uiso   1.00
C861   C     0.11120   0.32820   0.88380   0.01267  Uiso   1.00
C862   C     0.73730   0.39990   0.88190   0.01267  Uiso   1.00
C863   C     0.09030   0.29600   0.86610   0.01267  Uiso   1.00
C864   C     0.97720   0.15690   0.67900   0.01267  Uiso   1.00
C865   C     0.01110   0.17710   0.69090   0.01267  Uiso   1.00
C866   C     0.00840   0.19780   0.71780   0.01267  Uiso   1.00
C867   C     0.05180   0.17260   0.67590   0.01267  Uiso   1.00
N868   N     0.96460   0.22560   0.75900   0.01267  Uiso   1.00
N869   N     0.92380   0.24660   0.76310   0.01267  Uiso   1.00
N870   N     0.93400   0.25780   0.79230   0.01267  Uiso   1.00
N871   N     0.95150   0.36860   0.91140   0.01267  Uiso   1.00
N872   N     0.91690   0.38490   0.92380   0.01267  Uiso   1.00
N873   N     0.88790   0.38760   0.90150   0.01267  Uiso   1.00
N874   N     0.15140   0.31060   0.88400   0.01267  Uiso   1.00
N875   N     0.15630   0.27910   0.86320   0.01267  Uiso   1.00
N876   N     0.11370   0.27180   0.85570   0.01267  Uiso   1.00
O877   O     0.90126   0.12660   0.65158   0.01267  Uiso   1.00
O878   O     0.86072   0.15180   0.68780   0.01267  Uiso   1.00
O879   O     0.33936   0.35186   0.89332   0.01267  Uiso   1.00
O880   O     0.30753   0.31290   0.85658   0.01267  Uiso   1.00
O881   O     0.69668   0.41068   0.89019   0.01267  Uiso   1.00
O882   O     0.74009   0.37510   0.85803   0.01267  Uiso   1.00
O883   O     0.05590   0.14956   0.65235   0.01267  Uiso   1.00
O884   O     0.08476   0.19420   0.68747   0.01267  Uiso   1.00
O885   O     0.25202   0.41640   0.96967   0.01267  Uiso   1.00
O886   O     0.17900   0.40750   0.96910   0.01267  Uiso   1.00
O887   O     0.76230   0.49665   0.96973   0.01267  Uiso   1.00
O888   O     0.83423   0.50532   0.97018   0.01267  Uiso   1.00
Cu889  Cu    0.85505   0.10495   0.37280   0.01267  Uiso   1.00
Cu890  Cu    0.80609   0.14132   0.33184   0.01267  Uiso   1.00
H891   H     0.68580   0.59600   0.22600   0.01267  Uiso   1.00
H892   H     0.73320   0.47820   0.27490   0.01267  Uiso   1.00
H893   H     0.77480   0.45020   0.31700   0.01267  Uiso   1.00
H894   H     0.84660   0.47600   0.38760   0.01267  Uiso   1.00
H895   H     0.80070   0.57260   0.33980   0.01267  Uiso   1.00
H896   H     0.85250   0.62030   0.36430   0.01267  Uiso   1.00
H897   H     0.87180   0.68560   0.37700   0.01267  Uiso   1.00
H898   H     0.94460   0.75660   0.42850   0.01267  Uiso   1.00
H899   H     0.94000   0.63330   0.44470   0.01267  Uiso   1.00
H900   H     0.87550   0.21370   0.42870   0.01267  Uiso   1.00
H901   H     0.85340   0.33860   0.43160   0.01267  Uiso   1.00
H902   H     0.80220   0.26650   0.36740   0.01267  Uiso   1.00
H903   H     0.85340   0.39940   0.39250   0.01267  Uiso   1.00
H904   H     0.63770   0.51960   0.16310   0.01267  Uiso   1.00
H905   H     0.70940   0.46760   0.22740   0.01267  Uiso   1.00
C906   C     0.64520   0.60300   0.17430   0.01267  Uiso   1.00
C907   C     0.66580   0.56390   0.19160   0.01267  Uiso   1.00
C908   C     0.68400   0.56890   0.21700   0.01267  Uiso   1.00
C909   C     0.70060   0.53420   0.23040   0.01267  Uiso   1.00
C910   C     0.73740   0.50790   0.27630   0.01267  Uiso   1.00
C911   C     0.75960   0.53150   0.29990   0.01267  Uiso   1.00
C912   C     0.77630   0.51430   0.32720   0.01267  Uiso   1.00
C913   C     0.78200   0.46960   0.33220   0.01267  Uiso   1.00
C914   C     0.79630   0.45590   0.35600   0.01267  Uiso   1.00
C915   C     0.82930   0.48730   0.37240   0.01267  Uiso   1.00
C916   C     0.83350   0.52750   0.36590   0.01267  Uiso   1.00
C917   C     0.80280   0.54310   0.34350   0.01267  Uiso   1.00
C918   C     0.85570   0.55350   0.38450   0.01267  Uiso   1.00
C919   C     0.86320   0.60260   0.37950   0.01267  Uiso   1.00
C920   C     0.90700   0.64930   0.41000   0.01267  Uiso   1.00
C921   C     0.89270   0.68810   0.39190   0.01267  Uiso   1.00
C922   C     0.91230   0.72860   0.39850   0.01267  Uiso   1.00
C923   C     0.93840   0.72930   0.42100   0.01267  Uiso   1.00
C924   C     0.95880   0.69530   0.43570   0.01267  Uiso   1.00
C925   C     0.93500   0.65580   0.43130   0.01267  Uiso   1.00
C926   C     0.98980   0.69990   0.45930   0.01267  Uiso   1.00
C927   C     0.83890   0.19240   0.38040   0.01267  Uiso   1.00
C928   C     0.84040   0.23490   0.39500   0.01267  Uiso   1.00
C929   C     0.86410   0.23840   0.41980   0.01267  Uiso   1.00
C930   C     0.87230   0.27950   0.43300   0.01267  Uiso   1.00
C931   C     0.85290   0.31260   0.42100   0.01267  Uiso   1.00
C932   C     0.83200   0.31160   0.39400   0.01267  Uiso   1.00
C933   C     0.82190   0.26970   0.38310   0.01267  Uiso   1.00
C934   C     0.89750   0.28450   0.45830   0.01267  Uiso   1.00
C935   C     0.82820   0.38880   0.38380   0.01267  Uiso   1.00
C936   C     0.89990   0.76270   0.38190   0.01267  Uiso   1.00
C937   C     0.79600   0.40970   0.36610   0.01267  Uiso   1.00
C938   C     0.65690   0.52280   0.17900   0.01267  Uiso   1.00
C939   C     0.67710   0.48890   0.19090   0.01267  Uiso   1.00
C940   C     0.69780   0.49160   0.21780   0.01267  Uiso   1.00
C941   C     0.67260   0.44820   0.17590   0.01267  Uiso   1.00
N942   N     0.72560   0.53540   0.25900   0.01267  Uiso   1.00
N943   N     0.74660   0.57620   0.26310   0.01267  Uiso   1.00
N944   N     0.75780   0.56600   0.29230   0.01267  Uiso   1.00
N945   N     0.86860   0.54850   0.41140   0.01267  Uiso   1.00
N946   N     0.88490   0.58310   0.42380   0.01267  Uiso   1.00
N947   N     0.88760   0.61210   0.40150   0.01267  Uiso   1.00
N948   N     0.81060   0.34860   0.38400   0.01267  Uiso   1.00
N949   N     0.77910   0.34370   0.36320   0.01267  Uiso   1.00
N950   N     0.77180   0.38630   0.35570   0.01267  Uiso   1.00
O951   O     0.62660   0.59874   0.15158   0.01267  Uiso   1.00
O952   O     0.65180   0.63928   0.18780   0.01267  Uiso   1.00
O953   O     0.85186   0.16064   0.39332   0.01267  Uiso   1.00
O954   O     0.81290   0.19247   0.35658   0.01267  Uiso   1.00
O955   O     0.91068   0.80332   0.39019   0.01267  Uiso   1.00
O956   O     0.87510   0.75991   0.35803   0.01267  Uiso   1.00
O957   O     0.64956   0.44410   0.15235   0.01267  Uiso   1.00
O958   O     0.69420   0.41524   0.18747   0.01267  Uiso   1.00
O959   O     0.91640   0.24798   0.46967   0.01267  Uiso   1.00
O960   O     0.90750   0.32100   0.46910   0.01267  Uiso   1.00
O961   O     0.99665   0.73770   0.46973   0.01267  Uiso   1.00
O962   O     0.00532   0.66577   0.47018   0.01267  Uiso   1.00
Cu963  Cu    0.35505   0.60495   0.87280   0.01267  Uiso   1.00
Cu964  Cu    0.30609   0.64132   0.83184   0.01267  Uiso   1.00
H965   H     0.18580   0.09600   0.72600   0.01267  Uiso   1.00
H966   H     0.23320   0.97820   0.77490   0.01267  Uiso   1.00
H967   H     0.27480   0.95020   0.81700   0.01267  Uiso   1.00
H968   H     0.34660   0.97600   0.88760   0.01267  Uiso   1.00
H969   H     0.30070   0.07260   0.83980   0.01267  Uiso   1.00
H970   H     0.35250   0.12030   0.86430   0.01267  Uiso   1.00
H971   H     0.37180   0.18560   0.87700   0.01267  Uiso   1.00
H972   H     0.44460   0.25660   0.92850   0.01267  Uiso   1.00
H973   H     0.44000   0.13330   0.94470   0.01267  Uiso   1.00
H974   H     0.37550   0.71370   0.92870   0.01267  Uiso   1.00
H975   H     0.35340   0.83860   0.93160   0.01267  Uiso   1.00
H976   H     0.30220   0.76650   0.86740   0.01267  Uiso   1.00
H977   H     0.35340   0.89940   0.89250   0.01267  Uiso   1.00
H978   H     0.13770   0.01960   0.66310   0.01267  Uiso   1.00
H979   H     0.20940   0.96760   0.72740   0.01267  Uiso   1.00
C980   C     0.14520   0.10300   0.67430   0.01267  Uiso   1.00
C981   C     0.16580   0.06390   0.69160   0.01267  Uiso   1.00
C982   C     0.18400   0.06890   0.71700   0.01267  Uiso   1.00
C983   C     0.20060   0.03420   0.73040   0.01267  Uiso   1.00
C984   C     0.23740   0.00790   0.77630   0.01267  Uiso   1.00
C985   C     0.25960   0.03150   0.79990   0.01267  Uiso   1.00
C986   C     0.27630   0.01430   0.82720   0.01267  Uiso   1.00
C987   C     0.28200   0.96960   0.83220   0.01267  Uiso   1.00
C988   C     0.29630   0.95590   0.85600   0.01267  Uiso   1.00
C989   C     0.32930   0.98730   0.87240   0.01267  Uiso   1.00
C990   C     0.33350   0.02750   0.86590   0.01267  Uiso   1.00
C991   C     0.30280   0.04310   0.84350   0.01267  Uiso   1.00
C992   C     0.35570   0.05350   0.88450   0.01267  Uiso   1.00
C993   C     0.36320   0.10260   0.87950   0.01267  Uiso   1.00
C994   C     0.40700   0.14930   0.91000   0.01267  Uiso   1.00
C995   C     0.39270   0.18810   0.89190   0.01267  Uiso   1.00
C996   C     0.41230   0.22860   0.89850   0.01267  Uiso   1.00
C997   C     0.43840   0.22930   0.92100   0.01267  Uiso   1.00
C998   C     0.45880   0.19530   0.93570   0.01267  Uiso   1.00
C999   C     0.43500   0.15580   0.93130   0.01267  Uiso   1.00
C1000  C     0.48980   0.19990   0.95930   0.01267  Uiso   1.00
C1001  C     0.33890   0.69240   0.88040   0.01267  Uiso   1.00
C1002  C     0.34040   0.73490   0.89500   0.01267  Uiso   1.00
C1003  C     0.36410   0.73840   0.91980   0.01267  Uiso   1.00
C1004  C     0.37230   0.77950   0.93300   0.01267  Uiso   1.00
C1005  C     0.35290   0.81260   0.92100   0.01267  Uiso   1.00
C1006  C     0.33200   0.81160   0.89400   0.01267  Uiso   1.00
C1007  C     0.32190   0.76970   0.88310   0.01267  Uiso   1.00
C1008  C     0.39750   0.78450   0.95830   0.01267  Uiso   1.00
C1009  C     0.32820   0.88880   0.88380   0.01267  Uiso   1.00
C1010  C     0.39990   0.26270   0.88190   0.01267  Uiso   1.00
C1011  C     0.29600   0.90970   0.86610   0.01267  Uiso   1.00
C1012  C     0.15690   0.02280   0.67900   0.01267  Uiso   1.00
C1013  C     0.17710   0.98890   0.69090   0.01267  Uiso   1.00
C1014  C     0.19780   0.99160   0.71780   0.01267  Uiso   1.00
C1015  C     0.17260   0.94820   0.67590   0.01267  Uiso   1.00
N1016  N     0.22560   0.03540   0.75900   0.01267  Uiso   1.00
N1017  N     0.24660   0.07620   0.76310   0.01267  Uiso   1.00
N1018  N     0.25780   0.06600   0.79230   0.01267  Uiso   1.00
N1019  N     0.36860   0.04850   0.91140   0.01267  Uiso   1.00
N1020  N     0.38490   0.08310   0.92380   0.01267  Uiso   1.00
N1021  N     0.38760   0.11210   0.90150   0.01267  Uiso   1.00
N1022  N     0.31060   0.84860   0.88400   0.01267  Uiso   1.00
N1023  N     0.27910   0.84370   0.86320   0.01267  Uiso   1.00
N1024  N     0.27180   0.88630   0.85570   0.01267  Uiso   1.00
O1025  O     0.12660   0.09874   0.65158   0.01267  Uiso   1.00
O1026  O     0.15180   0.13928   0.68780   0.01267  Uiso   1.00
O1027  O     0.35186   0.66064   0.89332   0.01267  Uiso   1.00
O1028  O     0.31290   0.69247   0.85658   0.01267  Uiso   1.00
O1029  O     0.41068   0.30332   0.89019   0.01267  Uiso   1.00
O1030  O     0.37510   0.25991   0.85803   0.01267  Uiso   1.00
O1031  O     0.14956   0.94410   0.65235   0.01267  Uiso   1.00
O1032  O     0.19420   0.91524   0.68747   0.01267  Uiso   1.00
O1033  O     0.41640   0.74798   0.96967   0.01267  Uiso   1.00
O1034  O     0.40750   0.82100   0.96910   0.01267  Uiso   1.00
O1035  O     0.49665   0.23770   0.96973   0.01267  Uiso   1.00
O1036  O     0.50532   0.16577   0.97018   0.01267  Uiso   1.00
Cu1037 Cu    0.14495   0.89505   0.37280   0.01267  Uiso   1.00
Cu1038 Cu    0.19391   0.85868   0.33184   0.01267  Uiso   1.00
H1039  H     0.31420   0.40400   0.22600   0.01267  Uiso   1.00
H1040  H     0.26680   0.52180   0.27490   0.01267  Uiso   1.00
H1041  H     0.22520   0.54980   0.31700   0.01267  Uiso   1.00
H1042  H     0.15340   0.52400   0.38760   0.01267  Uiso   1.00
H1043  H     0.19930   0.42740   0.33980   0.01267  Uiso   1.00
H1044  H     0.14750   0.37970   0.36430   0.01267  Uiso   1.00
H1045  H     0.12820   0.31440   0.37700   0.01267  Uiso   1.00
H1046  H     0.05540   0.24340   0.42850   0.01267  Uiso   1.00
H1047  H     0.06000   0.36670   0.44470   0.01267  Uiso   1.00
H1048  H     0.12450   0.78630   0.42870   0.01267  Uiso   1.00
H1049  H     0.14660   0.66140   0.43160   0.01267  Uiso   1.00
H1050  H     0.19780   0.73350   0.36740   0.01267  Uiso   1.00
H1051  H     0.14660   0.60060   0.39250   0.01267  Uiso   1.00
H1052  H     0.36230   0.48040   0.16310   0.01267  Uiso   1.00
H1053  H     0.29060   0.53240   0.22740   0.01267  Uiso   1.00
C1054  C     0.35480   0.39700   0.17430   0.01267  Uiso   1.00
C1055  C     0.33420   0.43610   0.19160   0.01267  Uiso   1.00
C1056  C     0.31600   0.43110   0.21700   0.01267  Uiso   1.00
C1057  C     0.29940   0.46580   0.23040   0.01267  Uiso   1.00
C1058  C     0.26260   0.49210   0.27630   0.01267  Uiso   1.00
C1059  C     0.24040   0.46850   0.29990   0.01267  Uiso   1.00
C1060  C     0.22370   0.48570   0.32720   0.01267  Uiso   1.00
C1061  C     0.21800   0.53040   0.33220   0.01267  Uiso   1.00
C1062  C     0.20370   0.54410   0.35600   0.01267  Uiso   1.00
C1063  C     0.17070   0.51270   0.37240   0.01267  Uiso   1.00
C1064  C     0.16650   0.47250   0.36590   0.01267  Uiso   1.00
C1065  C     0.19720   0.45690   0.34350   0.01267  Uiso   1.00
C1066  C     0.14430   0.44650   0.38450   0.01267  Uiso   1.00
C1067  C     0.13680   0.39740   0.37950   0.01267  Uiso   1.00
C1068  C     0.09300   0.35070   0.41000   0.01267  Uiso   1.00
C1069  C     0.10730   0.31190   0.39190   0.01267  Uiso   1.00
C1070  C     0.08770   0.27140   0.39850   0.01267  Uiso   1.00
C1071  C     0.06160   0.27070   0.42100   0.01267  Uiso   1.00
C1072  C     0.04120   0.30470   0.43570   0.01267  Uiso   1.00
C1073  C     0.06500   0.34420   0.43130   0.01267  Uiso   1.00
C1074  C     0.01020   0.30010   0.45930   0.01267  Uiso   1.00
C1075  C     0.16110   0.80760   0.38040   0.01267  Uiso   1.00
C1076  C     0.15960   0.76510   0.39500   0.01267  Uiso   1.00
C1077  C     0.13590   0.76160   0.41980   0.01267  Uiso   1.00
C1078  C     0.12770   0.72050   0.43300   0.01267  Uiso   1.00
C1079  C     0.14710   0.68740   0.42100   0.01267  Uiso   1.00
C1080  C     0.16800   0.68840   0.39400   0.01267  Uiso   1.00
C1081  C     0.17810   0.73030   0.38310   0.01267  Uiso   1.00
C1082  C     0.10250   0.71550   0.45830   0.01267  Uiso   1.00
C1083  C     0.17180   0.61120   0.38380   0.01267  Uiso   1.00
C1084  C     0.10010   0.23730   0.38190   0.01267  Uiso   1.00
C1085  C     0.20400   0.59030   0.36610   0.01267  Uiso   1.00
C1086  C     0.34310   0.47720   0.17900   0.01267  Uiso   1.00
C1087  C     0.32290   0.51110   0.19090   0.01267  Uiso   1.00
C1088  C     0.30220   0.50840   0.21780   0.01267  Uiso   1.00
C1089  C     0.32740   0.55180   0.17590   0.01267  Uiso   1.00
N1090  N     0.27440   0.46460   0.25900   0.01267  Uiso   1.00
N1091  N     0.25340   0.42380   0.26310   0.01267  Uiso   1.00
N1092  N     0.24220   0.43400   0.29230   0.01267  Uiso   1.00
N1093  N     0.13140   0.45150   0.41140   0.01267  Uiso   1.00
N1094  N     0.11510   0.41690   0.42380   0.01267  Uiso   1.00
N1095  N     0.11240   0.38790   0.40150   0.01267  Uiso   1.00
N1096  N     0.18940   0.65140   0.38400   0.01267  Uiso   1.00
N1097  N     0.22090   0.65630   0.36320   0.01267  Uiso   1.00
N1098  N     0.22820   0.61370   0.35570   0.01267  Uiso   1.00
O1099  O     0.37340   0.40126   0.15158   0.01267  Uiso   1.00
O1100  O     0.34820   0.36072   0.18780   0.01267  Uiso   1.00
O1101  O     0.14814   0.83936   0.39332   0.01267  Uiso   1.00
O1102  O     0.18710   0.80753   0.35658   0.01267  Uiso   1.00
O1103  O     0.08932   0.19668   0.39019   0.01267  Uiso   1.00
O1104  O     0.12490   0.24009   0.35803   0.01267  Uiso   1.00
O1105  O     0.35044   0.55590   0.15235   0.01267  Uiso   1.00
O1106  O     0.30580   0.58476   0.18747   0.01267  Uiso   1.00
O1107  O     0.08360   0.75202   0.46967   0.01267  Uiso   1.00
O1108  O     0.09250   0.67900   0.46910   0.01267  Uiso   1.00
O1109  O     0.00335   0.26230   0.46973   0.01267  Uiso   1.00
O1110  O     0.99468   0.33423   0.47018   0.01267  Uiso   1.00
Cu1111 Cu    0.64495   0.39505   0.87280   0.01267  Uiso   1.00
Cu1112 Cu    0.69391   0.35868   0.83184   0.01267  Uiso   1.00
H1113  H     0.81420   0.90400   0.72600   0.01267  Uiso   1.00
H1114  H     0.76680   0.02180   0.77490   0.01267  Uiso   1.00
H1115  H     0.72520   0.04980   0.81700   0.01267  Uiso   1.00
H1116  H     0.65340   0.02400   0.88760   0.01267  Uiso   1.00
H1117  H     0.69930   0.92740   0.83980   0.01267  Uiso   1.00
H1118  H     0.64750   0.87970   0.86430   0.01267  Uiso   1.00
H1119  H     0.62820   0.81440   0.87700   0.01267  Uiso   1.00
H1120  H     0.55540   0.74340   0.92850   0.01267  Uiso   1.00
H1121  H     0.56000   0.86670   0.94470   0.01267  Uiso   1.00
H1122  H     0.62450   0.28630   0.92870   0.01267  Uiso   1.00
H1123  H     0.64660   0.16140   0.93160   0.01267  Uiso   1.00
H1124  H     0.69780   0.23350   0.86740   0.01267  Uiso   1.00
H1125  H     0.64660   0.10060   0.89250   0.01267  Uiso   1.00
H1126  H     0.86230   0.98040   0.66310   0.01267  Uiso   1.00
H1127  H     0.79060   0.03240   0.72740   0.01267  Uiso   1.00
C1128  C     0.85480   0.89700   0.67430   0.01267  Uiso   1.00
C1129  C     0.83420   0.93610   0.69160   0.01267  Uiso   1.00
C1130  C     0.81600   0.93110   0.71700   0.01267  Uiso   1.00
C1131  C     0.79940   0.96580   0.73040   0.01267  Uiso   1.00
C1132  C     0.76260   0.99210   0.77630   0.01267  Uiso   1.00
C1133  C     0.74040   0.96850   0.79990   0.01267  Uiso   1.00
C1134  C     0.72370   0.98570   0.82720   0.01267  Uiso   1.00
C1135  C     0.71800   0.03040   0.83220   0.01267  Uiso   1.00
C1136  C     0.70370   0.04410   0.85600   0.01267  Uiso   1.00
C1137  C     0.67070   0.01270   0.87240   0.01267  Uiso   1.00
C1138  C     0.66650   0.97250   0.86590   0.01267  Uiso   1.00
C1139  C     0.69720   0.95690   0.84350   0.01267  Uiso   1.00
C1140  C     0.64430   0.94650   0.88450   0.01267  Uiso   1.00
C1141  C     0.63680   0.89740   0.87950   0.01267  Uiso   1.00
C1142  C     0.59300   0.85070   0.91000   0.01267  Uiso   1.00
C1143  C     0.60730   0.81190   0.89190   0.01267  Uiso   1.00
C1144  C     0.58770   0.77140   0.89850   0.01267  Uiso   1.00
C1145  C     0.56160   0.77070   0.92100   0.01267  Uiso   1.00
C1146  C     0.54120   0.80470   0.93570   0.01267  Uiso   1.00
C1147  C     0.56500   0.84420   0.93130   0.01267  Uiso   1.00
C1148  C     0.51020   0.80010   0.95930   0.01267  Uiso   1.00
C1149  C     0.66110   0.30760   0.88040   0.01267  Uiso   1.00
C1150  C     0.65960   0.26510   0.89500   0.01267  Uiso   1.00
C1151  C     0.63590   0.26160   0.91980   0.01267  Uiso   1.00
C1152  C     0.62770   0.22050   0.93300   0.01267  Uiso   1.00
C1153  C     0.64710   0.18740   0.92100   0.01267  Uiso   1.00
C1154  C     0.66800   0.18840   0.89400   0.01267  Uiso   1.00
C1155  C     0.67810   0.23030   0.88310   0.01267  Uiso   1.00
C1156  C     0.60250   0.21550   0.95830   0.01267  Uiso   1.00
C1157  C     0.67180   0.11120   0.88380   0.01267  Uiso   1.00
C1158  C     0.60010   0.73730   0.88190   0.01267  Uiso   1.00
C1159  C     0.70400   0.09030   0.86610   0.01267  Uiso   1.00
C1160  C     0.84310   0.97720   0.67900   0.01267  Uiso   1.00
C1161  C     0.82290   0.01110   0.69090   0.01267  Uiso   1.00
C1162  C     0.80220   0.00840   0.71780   0.01267  Uiso   1.00
C1163  C     0.82740   0.05180   0.67590   0.01267  Uiso   1.00
N1164  N     0.77440   0.96460   0.75900   0.01267  Uiso   1.00
N1165  N     0.75340   0.92380   0.76310   0.01267  Uiso   1.00
N1166  N     0.74220   0.93400   0.79230   0.01267  Uiso   1.00
N1167  N     0.63140   0.95150   0.91140   0.01267  Uiso   1.00
N1168  N     0.61510   0.91690   0.92380   0.01267  Uiso   1.00
N1169  N     0.61240   0.88790   0.90150   0.01267  Uiso   1.00
N1170  N     0.68940   0.15140   0.88400   0.01267  Uiso   1.00
N1171  N     0.72090   0.15630   0.86320   0.01267  Uiso   1.00
N1172  N     0.72820   0.11370   0.85570   0.01267  Uiso   1.00
O1173  O     0.87340   0.90126   0.65158   0.01267  Uiso   1.00
O1174  O     0.84820   0.86072   0.68780   0.01267  Uiso   1.00
O1175  O     0.64814   0.33936   0.89332   0.01267  Uiso   1.00
O1176  O     0.68710   0.30753   0.85658   0.01267  Uiso   1.00
O1177  O     0.58932   0.69668   0.89019   0.01267  Uiso   1.00
O1178  O     0.62490   0.74009   0.85803   0.01267  Uiso   1.00
O1179  O     0.85044   0.05590   0.65235   0.01267  Uiso   1.00
O1180  O     0.80580   0.08476   0.68747   0.01267  Uiso   1.00
O1181  O     0.58360   0.25202   0.96967   0.01267  Uiso   1.00
O1182  O     0.59250   0.17900   0.96910   0.01267  Uiso   1.00
O1183  O     0.50335   0.76230   0.96973   0.01267  Uiso   1.00
O1184  O     0.49468   0.83423   0.97018   0.01267  Uiso   1.00
Cu1185 Cu    0.25052   0.46148  -0.00000   0.01267  Uiso   1.00
Cu1186 Cu    0.75052   0.96148   0.50000   0.01267  Uiso   1.00
Cu1187 Cu    0.74948   0.53852  -0.00000   0.01267  Uiso   1.00
Cu1188 Cu    0.24948   0.03852   0.50000   0.01267  Uiso   1.00
Cu1189 Cu    0.53852   0.25052   0.00000   0.01267  Uiso   1.00
Cu1190 Cu    0.03852   0.75052   0.50000   0.01267  Uiso   1.00
Cu1191 Cu    0.46148   0.74948  -0.00000   0.01267  Uiso   1.00
Cu1192 Cu    0.96148   0.24948   0.50000   0.01267  Uiso   1.00
Cu1193 Cu    0.66650   0.94979   0.50000   0.01267  Uiso   1.00
Cu1194 Cu    0.16650   0.44979  -0.00000   0.01267  Uiso   1.00
Cu1195 Cu    0.33350   0.05021   0.50000   0.01267  Uiso   1.00
Cu1196 Cu    0.83350   0.55021  -0.00000   0.01267  Uiso   1.00
Cu1197 Cu    0.05021   0.66650   0.50000   0.01267  Uiso   1.00
Cu1198 Cu    0.55021   0.16650  -0.00000   0.01267  Uiso   1.00
Cu1199 Cu    0.94979   0.33350   0.50000   0.01267  Uiso   1.00
Cu1200 Cu    0.44979   0.83350  -0.00000   0.01267  Uiso   1.00
loop_
_geom_bond_atom_site_label_1
_geom_bond_atom_site_label_2
_geom_bond_distance
_geom_bond_site_symmetry_2
_ccdc_geom_bond_type
Cu1    Cu2     2.649   .     S
Cu1    O65     1.974   .     S
Cu1    O511    1.863   .     S
Cu1    O735    1.910   .     S
Cu1    O1173   1.936   .     S
Cu2    O66     1.959   .     S
Cu2    O512    1.932   .     S
Cu2    O736    1.971   .     S
Cu2    O1174   1.951   .     S
H3     C20     0.941   .     S
H4     C22     0.941   .     S
H5     C25     0.940   .     S
H6     C27     0.939   .     S
H7     C29     0.941   .     S
H8     C31     0.940   .     S
H9     C33     0.938   .     S
H10    C35     0.939   .     S
H11    C37     0.939   .     S
H12    C41     0.941   .     S
H13    C43     0.943   .     S
H14    C45     0.941   .     S
H15    C47     0.941   .     S
H16    C50     0.938   .     S
H17    C52     0.939   .     S
C18    C19     1.586   .     S
C18    O63     1.180   .     A
C18    O64     1.303   .     A
C19    C20     1.282   .     A
C19    C50     1.433   .     A
C20    C21     1.346   .     A
C21    C52     1.451   .     A
C21    N54     1.502   .     S
C22    C23     1.465   .     A
C22    N54     1.216   .     A
C23    C24     1.435   .     S
C23    N56     1.134   .     A
C24    C25     1.429   .     A
C24    C29     1.427   .     A
C25    C26     1.234   .     A
C26    C27     1.604   .     A
C26    C49     1.516   .     S
C27    C28     1.299   .     A
C28    C29     1.473   .     A
C28    C30     1.357   .     S
C30    C31     1.571   .     A
C30    N57     1.281   .     A
C31    N59     1.282   .     A
C32    C33     1.528   .     A
C32    C37     1.312   .     A
C32    N59     1.368   .     S
C33    C34     1.439   .     A
C34    C35     1.298   .     A
C34    C48     1.358   .     S
C35    C36     1.405   .     A
C36    C37     1.457   .     A
C36    C38     1.443   .     S
C38    O73     1.290   .     A
C38    O74     1.271   1_565 A
C39    C40     1.484   .     S
C39    O65     1.220   .     A
C39    O66     1.342   .     A
C40    C41     1.341   .     A
C40    C45     1.344   .     A
C41    C42     1.439   .     A
C42    C43     1.316   .     A
C42    C46     1.390   .     S
C43    C44     1.376   .     A
C44    C45     1.435   .     A
C44    N60     1.411   .     S
C46    O71     1.385   .     A
C46    O72     1.280   .     A
C47    C49     1.440   .     A
C47    N60     1.374   .     A
C48    O67     1.367   .     A
C48    O68     1.325   .     A
C49    N62     1.152   .     A
C50    C51     1.346   .     A
C51    C52     1.371   .     A
C51    C53     1.448   .     S
C53    O69     1.285   .     A
C53    O70     1.338   .     A
N54    N55     1.448   .     A
N55    N56     1.392   .     A
N57    N58     1.320   .     A
N58    N59     1.353   .     A
N60    N61     1.366   .     A
N61    N62     1.394   .     A
O63    Cu963   1.936   .     S
O64    Cu964   1.951   .     S
O67    Cu297   1.863   .     S
O68    Cu298   1.932   .     S
O69    Cu667   1.910   .     S
O70    Cu668   1.971   .     S
O71    Cu1186  1.960   .     S
O72    Cu1193  1.955   .     S
O73    Cu1188  1.929   1_565 S
O74    C38     1.271   1_545 A
O74    Cu1195  1.939   .     S
Cu75   Cu76    2.649   .     S
Cu75   O139    1.974   .     S
Cu75   O585    1.863   .     S
Cu75   O661    1.910   .     S
Cu75   O1099   1.936   .     S
Cu76   O140    1.959   .     S
Cu76   O586    1.932   .     S
Cu76   O662    1.971   .     S
Cu76   O1100   1.951   .     S
H77    C94     0.941   .     S
H78    C96     0.941   1_455 S
H79    C99     0.940   .     S
H80    C101    0.939   .     S
H81    C103    0.941   .     S
H82    C105    0.940   .     S
H83    C107    0.938   .     S
H84    C109    0.939   .     S
H85    C111    0.939   .     S
H86    C115    0.941   .     S
H87    C117    0.943   .     S
H88    C119    0.941   .     S
H89    C121    0.941   .     S
H90    C124    0.938   .     S
H91    C126    0.939   .     S
C92    C93     1.586   .     S
C92    O137    1.180   .     A
C92    O138    1.303   .     A
C93    C94     1.282   .     A
C93    C124    1.433   .     A
C94    C95     1.346   .     A
C95    C126    1.451   1_655 A
C95    N128    1.502   .     S
C96    H78     0.941   1_655 S
C96    C97     1.465   .     A
C96    N128    1.216   .     A
C97    C98     1.435   .     S
C97    N130    1.134   .     A
C98    C99     1.429   1_655 A
C98    C103    1.427   .     A
C99    C98     1.429   1_455 A
C99    C100    1.234   .     A
C100   C101    1.604   .     A
C100   C123    1.516   .     S
C101   C102    1.299   1_455 A
C102   C101    1.299   1_655 A
C102   C103    1.473   .     A
C102   C104    1.357   .     S
C104   C105    1.571   .     A
C104   N131    1.281   .     A
C105   N133    1.282   .     A
C106   C107    1.528   .     A
C106   C111    1.312   .     A
C106   N133    1.368   .     S
C107   C108    1.439   .     A
C108   C109    1.298   .     A
C108   C122    1.358   .     S
C109   C110    1.405   .     A
C110   C111    1.457   .     A
C110   C112    1.443   .     S
C112   O147    1.290   .     A
C112   O148    1.271   .     A
C113   C114    1.484   .     S
C113   O139    1.220   .     A
C113   O140    1.342   .     A
C114   C115    1.341   .     A
C114   C119    1.344   .     A
C115   C116    1.439   .     A
C116   C117    1.316   .     A
C116   C120    1.390   .     S
C117   C118    1.376   .     A
C118   C119    1.435   .     A
C118   N134    1.411   .     S
C120   O145    1.385   .     A
C120   O146    1.280   .     A
C121   C123    1.440   .     A
C121   N134    1.374   .     A
C122   O141    1.367   .     A
C122   O142    1.325   .     A
C123   N136    1.152   .     A
C124   C125    1.346   1_655 A
C125   C124    1.346   1_455 A
C125   C126    1.371   .     A
C125   C127    1.448   .     S
C126   C95     1.451   1_455 A
C127   O143    1.285   .     A
C127   O144    1.338   .     A
N128   N129    1.448   .     A
N129   N130    1.392   .     A
N131   N132    1.320   .     A
N132   N133    1.353   .     A
N134   N135    1.366   .     A
N135   N136    1.394   .     A
O137   Cu889   1.936   .     S
O138   Cu890   1.951   .     S
O141   Cu371   1.863   .     S
O142   Cu372   1.932   .     S
O143   Cu593   1.910   .     S
O144   Cu594   1.971   .     S
O145   Cu1185  1.960   .     S
O146   Cu1194  1.955   .     S
O147   Cu1187  1.929   .     S
O148   Cu1196  1.939   .     S
Cu149  Cu150   2.649   .     S
Cu149  O213    1.974   .     S
Cu149  O363    1.863   .     S
Cu149  O883    1.910   .     S
Cu149  O1025   1.936   .     S
Cu150  O214    1.959   .     S
Cu150  O364    1.932   .     S
Cu150  O884    1.971   .     S
Cu150  O1026   1.951   .     S
H151   C168    0.941   .     S
H152   C170    0.941   .     S
H153   C173    0.940   .     S
H154   C175    0.939   .     S
H155   C177    0.941   .     S
H156   C179    0.940   .     S
H157   C181    0.938   .     S
H158   C183    0.939   .     S
H159   C185    0.939   .     S
H160   C189    0.941   .     S
H161   C191    0.943   .     S
H162   C193    0.941   .     S
H163   C195    0.941   .     S
H164   C198    0.938   .     S
H165   C200    0.939   .     S
C166   C167    1.586   .     S
C166   O211    1.180   .     A
C166   O212    1.303   .     A
C167   C168    1.282   .     A
C167   C198    1.433   .     A
C168   C169    1.346   .     A
C169   C200    1.451   .     A
C169   N202    1.502   .     S
C170   C171    1.465   .     A
C170   N202    1.216   .     A
C171   C172    1.435   .     S
C171   N204    1.134   .     A
C172   C173    1.429   .     A
C172   C177    1.427   .     A
C173   C174    1.234   .     A
C174   C175    1.604   .     A
C174   C197    1.516   .     S
C175   C176    1.299   .     A
C176   C177    1.473   .     A
C176   C178    1.357   .     S
C178   C179    1.571   .     A
C178   N205    1.281   .     A
C179   N207    1.282   .     A
C180   C181    1.528   .     A
C180   C185    1.312   .     A
C180   N207    1.368   .     S
C181   C182    1.439   .     A
C182   C183    1.298   .     A
C182   C196    1.358   .     S
C183   C184    1.405   .     A
C184   C185    1.457   .     A
C184   C186    1.443   .     S
C186   O221    1.290   .     A
C186   O222    1.271   1_545 A
C187   C188    1.484   .     S
C187   O213    1.220   .     A
C187   O214    1.342   .     A
C188   C189    1.341   .     A
C188   C193    1.344   .     A
C189   C190    1.439   .     A
C190   C191    1.316   .     A
C190   C194    1.390   .     S
C191   C192    1.376   .     A
C192   C193    1.435   .     A
C192   N208    1.411   .     S
C194   O219    1.385   .     A
C194   O220    1.280   .     A
C195   C197    1.440   .     A
C195   N208    1.374   .     A
C196   O215    1.367   .     A
C196   O216    1.325   .     A
C197   N210    1.152   .     A
C198   C199    1.346   .     A
C199   C200    1.371   .     A
C199   C201    1.448   .     S
C201   O217    1.285   .     A
C201   O218    1.338   .     A
N202   N203    1.448   .     A
N203   N204    1.392   .     A
N205   N206    1.320   .     A
N206   N207    1.353   .     A
N208   N209    1.366   .     A
N209   N210    1.394   .     A
O211   Cu1111  1.936   .     S
O212   Cu1112  1.951   .     S
O215   Cu445   1.863   .     S
O216   Cu446   1.932   .     S
O217   Cu815   1.910   .     S
O218   Cu816   1.971   .     S
O219   Cu1188  1.960   .     S
O220   Cu1195  1.955   .     S
O221   Cu1186  1.929   1_545 S
O222   C186    1.271   1_565 A
O222   Cu1193  1.939   .     S
Cu223  Cu224   2.649   .     S
Cu223  O287    1.974   .     S
Cu223  O437    1.863   .     S
Cu223  O809    1.910   .     S
Cu223  O951    1.936   .     S
Cu224  O288    1.959   .     S
Cu224  O438    1.932   .     S
Cu224  O810    1.971   .     S
Cu224  O952    1.951   .     S
H225   C242    0.941   .     S
H226   C244    0.941   1_655 S
H227   C247    0.940   .     S
H228   C249    0.939   .     S
H229   C251    0.941   .     S
H230   C253    0.940   .     S
H231   C255    0.938   .     S
H232   C257    0.939   .     S
H233   C259    0.939   .     S
H234   C263    0.941   .     S
H235   C265    0.943   .     S
H236   C267    0.941   .     S
H237   C269    0.941   .     S
H238   C272    0.938   .     S
H239   C274    0.939   .     S
C240   C241    1.586   .     S
C240   O285    1.180   .     A
C240   O286    1.303   .     A
C241   C242    1.282   .     A
C241   C272    1.433   .     A
C242   C243    1.346   .     A
C243   C274    1.451   1_455 A
C243   N276    1.502   .     S
C244   H226    0.941   1_455 S
C244   C245    1.465   .     A
C244   N276    1.216   .     A
C245   C246    1.435   .     S
C245   N278    1.134   .     A
C246   C247    1.429   1_455 A
C246   C251    1.427   .     A
C247   C246    1.429   1_655 A
C247   C248    1.234   .     A
C248   C249    1.604   .     A
C248   C271    1.516   .     S
C249   C250    1.299   1_655 A
C250   C249    1.299   1_455 A
C250   C251    1.473   .     A
C250   C252    1.357   .     S
C252   C253    1.571   .     A
C252   N279    1.281   .     A
C253   N281    1.282   .     A
C254   C255    1.528   .     A
C254   C259    1.312   .     A
C254   N281    1.368   .     S
C255   C256    1.439   .     A
C256   C257    1.298   .     A
C256   C270    1.358   .     S
C257   C258    1.405   .     A
C258   C259    1.457   .     A
C258   C260    1.443   .     S
C260   O295    1.290   .     A
C260   O296    1.271   .     A
C261   C262    1.484   .     S
C261   O287    1.220   .     A
C261   O288    1.342   .     A
C262   C263    1.341   .     A
C262   C267    1.344   .     A
C263   C264    1.439   .     A
C264   C265    1.316   .     A
C264   C268    1.390   .     S
C265   C266    1.376   .     A
C266   C267    1.435   .     A
C266   N282    1.411   .     S
C268   O293    1.385   .     A
C268   O294    1.280   .     A
C269   C271    1.440   .     A
C269   N282    1.374   .     A
C270   O289    1.367   .     A
C270   O290    1.325   .     A
C271   N284    1.152   .     A
C272   C273    1.346   1_455 A
C273   C272    1.346   1_655 A
C273   C274    1.371   .     A
C273   C275    1.448   .     S
C274   C243    1.451   1_655 A
C275   O291    1.285   .     A
C275   O292    1.338   .     A
N276   N277    1.448   .     A
N277   N278    1.392   .     A
N279   N280    1.320   .     A
N280   N281    1.353   .     A
N282   N283    1.366   .     A
N283   N284    1.394   .     A
O285   Cu1037  1.936   .     S
O286   Cu1038  1.951   .     S
O289   Cu519   1.863   .     S
O290   Cu520   1.932   .     S
O291   Cu741   1.910   .     S
O292   Cu742   1.971   .     S
O293   Cu1187  1.960   .     S
O294   Cu1196  1.955   .     S
O295   Cu1185  1.929   .     S
O296   Cu1194  1.939   .     S
Cu297  Cu298   2.649   .     S
Cu297  O361    1.974   .     S
Cu297  O1031   1.910   .     S
Cu297  O729    1.936   .     S
Cu298  O362    1.959   .     S
Cu298  O1032   1.971   .     S
Cu298  O730    1.951   .     S
H299   C316    0.941   .     S
H300   C318    0.941   .     S
H301   C321    0.940   .     S
H302   C323    0.939   .     S
H303   C325    0.941   .     S
H304   C327    0.940   .     S
H305   C329    0.938   .     S
H306   C331    0.939   .     S
H307   C333    0.939   .     S
H308   C337    0.941   .     S
H309   C339    0.943   .     S
H310   C341    0.941   .     S
H311   C343    0.941   .     S
H312   C346    0.938   .     S
H313   C348    0.939   .     S
C314   C315    1.586   .     S
C314   O359    1.180   .     A
C314   O360    1.303   .     A
C315   C316    1.282   .     A
C315   C346    1.433   .     A
C316   C317    1.346   .     A
C317   C348    1.451   .     A
C317   N350    1.502   .     S
C318   C319    1.465   .     A
C318   N350    1.216   .     A
C319   C320    1.435   .     S
C319   N352    1.134   .     A
C320   C321    1.429   .     A
C320   C325    1.427   .     A
C321   C322    1.234   .     A
C322   C323    1.604   .     A
C322   C345    1.516   .     S
C323   C324    1.299   .     A
C324   C325    1.473   .     A
C324   C326    1.357   .     S
C326   C327    1.571   .     A
C326   N353    1.281   .     A
C327   N355    1.282   .     A
C328   C329    1.528   .     A
C328   C333    1.312   .     A
C328   N355    1.368   .     S
C329   C330    1.439   .     A
C330   C331    1.298   .     A
C330   C344    1.358   .     S
C331   C332    1.405   .     A
C332   C333    1.457   .     A
C332   C334    1.443   .     S
C334   O369    1.290   .     A
C334   O370    1.271   1_455 A
C335   C336    1.484   .     S
C335   O361    1.220   .     A
C335   O362    1.342   .     A
C336   C337    1.341   .     A
C336   C341    1.344   .     A
C337   C338    1.439   .     A
C338   C339    1.316   .     A
C338   C342    1.390   .     S
C339   C340    1.376   .     A
C340   C341    1.435   .     A
C340   N356    1.411   .     S
C342   O367    1.385   .     A
C342   O368    1.280   .     A
C343   C345    1.440   .     A
C343   N356    1.374   .     A
C344   O363    1.367   .     A
C344   O364    1.325   .     A
C345   N358    1.152   .     A
C346   C347    1.346   .     A
C347   C348    1.371   .     A
C347   C349    1.448   .     S
C349   O365    1.285   .     A
C349   O366    1.338   .     A
N350   N351    1.448   .     A
N351   N352    1.392   .     A
N353   N354    1.320   .     A
N354   N355    1.353   .     A
N356   N357    1.366   .     A
N357   N358    1.394   .     A
O359   Cu815   1.936   .     S
O360   Cu816   1.951   .     S
O365   Cu963   1.910   .     S
O366   Cu964   1.971   .     S
O367   Cu1190  1.960   .     S
O368   Cu1197  1.955   .     S
O369   Cu1192  1.929   1_455 S
O370   C334    1.271   1_655 A
O370   Cu1199  1.939   .     S
Cu371  Cu372   2.649   .     S
Cu371  O435    1.974   .     S
Cu371  O957    1.910   .     S
Cu371  O655    1.936   .     S
Cu372  O436    1.959   .     S
Cu372  O958    1.971   .     S
Cu372  O656    1.951   .     S
H373   C390    0.941   .     S
H374   C392    0.941   1_545 S
H375   C395    0.940   .     S
H376   C397    0.939   .     S
H377   C399    0.941   .     S
H378   C401    0.940   .     S
H379   C403    0.938   .     S
H380   C405    0.939   .     S
H381   C407    0.939   .     S
H382   C411    0.941   .     S
H383   C413    0.943   .     S
H384   C415    0.941   .     S
H385   C417    0.941   .     S
H386   C420    0.938   .     S
H387   C422    0.939   .     S
C388   C389    1.586   .     S
C388   O433    1.180   .     A
C388   O434    1.303   .     A
C389   C390    1.282   .     A
C389   C420    1.433   .     A
C390   C391    1.346   .     A
C391   C422    1.451   1_565 A
C391   N424    1.502   .     S
C392   H374    0.941   1_565 S
C392   C393    1.465   .     A
C392   N424    1.216   .     A
C393   C394    1.435   .     S
C393   N426    1.134   .     A
C394   C395    1.429   1_565 A
C394   C399    1.427   .     A
C395   C394    1.429   1_545 A
C395   C396    1.234   .     A
C396   C397    1.604   .     A
C396   C419    1.516   .     S
C397   C398    1.299   1_545 A
C398   C397    1.299   1_565 A
C398   C399    1.473   .     A
C398   C400    1.357   .     S
C400   C401    1.571   .     A
C400   N427    1.281   .     A
C401   N429    1.282   .     A
C402   C403    1.528   .     A
C402   C407    1.312   .     A
C402   N429    1.368   .     S
C403   C404    1.439   .     A
C404   C405    1.298   .     A
C404   C418    1.358   .     S
C405   C406    1.405   .     A
C406   C407    1.457   .     A
C406   C408    1.443   .     S
C408   O443    1.290   .     A
C408   O444    1.271   .     A
C409   C410    1.484   .     S
C409   O435    1.220   .     A
C409   O436    1.342   .     A
C410   C411    1.341   .     A
C410   C415    1.344   .     A
C411   C412    1.439   .     A
C412   C413    1.316   .     A
C412   C416    1.390   .     S
C413   C414    1.376   .     A
C414   C415    1.435   .     A
C414   N430    1.411   .     S
C416   O441    1.385   .     A
C416   O442    1.280   .     A
C417   C419    1.440   .     A
C417   N430    1.374   .     A
C418   O437    1.367   .     A
C418   O438    1.325   .     A
C419   N432    1.152   .     A
C420   C421    1.346   1_565 A
C421   C420    1.346   1_545 A
C421   C422    1.371   .     A
C421   C423    1.448   .     S
C422   C391    1.451   1_545 A
C423   O439    1.285   .     A
C423   O440    1.338   .     A
N424   N425    1.448   .     A
N425   N426    1.392   .     A
N427   N428    1.320   .     A
N428   N429    1.353   .     A
N430   N431    1.366   .     A
N431   N432    1.394   .     A
O433   Cu741   1.936   .     S
O434   Cu742   1.951   .     S
O439   Cu889   1.910   .     S
O440   Cu890   1.971   .     S
O441   Cu1189  1.960   .     S
O442   Cu1198  1.955   .     S
O443   Cu1191  1.929   .     S
O444   Cu1200  1.939   .     S
Cu445  Cu446   2.649   .     S
Cu445  O509    1.974   .     S
Cu445  O1179   1.910   .     S
Cu445  O877    1.936   .     S
Cu446  O510    1.959   .     S
Cu446  O1180   1.971   .     S
Cu446  O878    1.951   .     S
H447   C464    0.941   .     S
H448   C466    0.941   .     S
H449   C469    0.940   .     S
H450   C471    0.939   .     S
H451   C473    0.941   .     S
H452   C475    0.940   .     S
H453   C477    0.938   .     S
H454   C479    0.939   .     S
H455   C481    0.939   .     S
H456   C485    0.941   .     S
H457   C487    0.943   .     S
H458   C489    0.941   .     S
H459   C491    0.941   .     S
H460   C494    0.938   .     S
H461   C496    0.939   .     S
C462   C463    1.586   .     S
C462   O507    1.180   .     A
C462   O508    1.303   .     A
C463   C464    1.282   .     A
C463   C494    1.433   .     A
C464   C465    1.346   .     A
C465   C496    1.451   .     A
C465   N498    1.502   .     S
C466   C467    1.465   .     A
C466   N498    1.216   .     A
C467   C468    1.435   .     S
C467   N500    1.134   .     A
C468   C469    1.429   .     A
C468   C473    1.427   .     A
C469   C470    1.234   .     A
C470   C471    1.604   .     A
C470   C493    1.516   .     S
C471   C472    1.299   .     A
C472   C473    1.473   .     A
C472   C474    1.357   .     S
C474   C475    1.571   .     A
C474   N501    1.281   .     A
C475   N503    1.282   .     A
C476   C477    1.528   .     A
C476   C481    1.312   .     A
C476   N503    1.368   .     S
C477   C478    1.439   .     A
C478   C479    1.298   .     A
C478   C492    1.358   .     S
C479   C480    1.405   .     A
C480   C481    1.457   .     A
C480   C482    1.443   .     S
C482   O517    1.290   .     A
C482   O518    1.271   1_655 A
C483   C484    1.484   .     S
C483   O509    1.220   .     A
C483   O510    1.342   .     A
C484   C485    1.341   .     A
C484   C489    1.344   .     A
C485   C486    1.439   .     A
C486   C487    1.316   .     A
C486   C490    1.390   .     S
C487   C488    1.376   .     A
C488   C489    1.435   .     A
C488   N504    1.411   .     S
C490   O515    1.385   .     A
C490   O516    1.280   .     A
C491   C493    1.440   .     A
C491   N504    1.374   .     A
C492   O511    1.367   .     A
C492   O512    1.325   .     A
C493   N506    1.152   .     A
C494   C495    1.346   .     A
C495   C496    1.371   .     A
C495   C497    1.448   .     S
C497   O513    1.285   .     A
C497   O514    1.338   .     A
N498   N499    1.448   .     A
N499   N500    1.392   .     A
N501   N502    1.320   .     A
N502   N503    1.353   .     A
N504   N505    1.366   .     A
N505   N506    1.394   .     A
O507   Cu667   1.936   .     S
O508   Cu668   1.951   .     S
O513   Cu1111  1.910   .     S
O514   Cu1112  1.971   .     S
O515   Cu1192  1.960   .     S
O516   Cu1199  1.955   .     S
O517   Cu1190  1.929   1_655 S
O518   C482    1.271   1_455 A
O518   Cu1197  1.939   .     S
Cu519  Cu520   2.649   .     S
Cu519  O583    1.974   .     S
Cu519  O1105   1.910   .     S
Cu519  O803    1.936   .     S
Cu520  O584    1.959   .     S
Cu520  O1106   1.971   .     S
Cu520  O804    1.951   .     S
H521   C538    0.941   .     S
H522   C540    0.941   1_565 S
H523   C543    0.940   .     S
H524   C545    0.939   .     S
H525   C547    0.941   .     S
H526   C549    0.940   .     S
H527   C551    0.938   .     S
H528   C553    0.939   .     S
H529   C555    0.939   .     S
H530   C559    0.941   .     S
H531   C561    0.943   .     S
H532   C563    0.941   .     S
H533   C565    0.941   .     S
H534   C568    0.938   .     S
H535   C570    0.939   .     S
C536   C537    1.586   .     S
C536   O581    1.180   .     A
C536   O582    1.303   .     A
C537   C538    1.282   .     A
C537   C568    1.433   .     A
C538   C539    1.346   .     A
C539   C570    1.451   1_545 A
C539   N572    1.502   .     S
C540   H522    0.941   1_545 S
C540   C541    1.465   .     A
C540   N572    1.216   .     A
C541   C542    1.435   .     S
C541   N574    1.134   .     A
C542   C543    1.429   1_545 A
C542   C547    1.427   .     A
C543   C542    1.429   1_565 A
C543   C544    1.234   .     A
C544   C545    1.604   .     A
C544   C567    1.516   .     S
C545   C546    1.299   1_565 A
C546   C545    1.299   1_545 A
C546   C547    1.473   .     A
C546   C548    1.357   .     S
C548   C549    1.571   .     A
C548   N575    1.281   .     A
C549   N577    1.282   .     A
C550   C551    1.528   .     A
C550   C555    1.312   .     A
C550   N577    1.368   .     S
C551   C552    1.439   .     A
C552   C553    1.298   .     A
C552   C566    1.358   .     S
C553   C554    1.405   .     A
C554   C555    1.457   .     A
C554   C556    1.443   .     S
C556   O591    1.290   .     A
C556   O592    1.271   .     A
C557   C558    1.484   .     S
C557   O583    1.220   .     A
C557   O584    1.342   .     A
C558   C559    1.341   .     A
C558   C563    1.344   .     A
C559   C560    1.439   .     A
C560   C561    1.316   .     A
C560   C564    1.390   .     S
C561   C562    1.376   .     A
C562   C563    1.435   .     A
C562   N578    1.411   .     S
C564   O589    1.385   .     A
C564   O590    1.280   .     A
C565   C567    1.440   .     A
C565   N578    1.374   .     A
C566   O585    1.367   .     A
C566   O586    1.325   .     A
C567   N580    1.152   .     A
C568   C569    1.346   1_545 A
C569   C568    1.346   1_565 A
C569   C570    1.371   .     A
C569   C571    1.448   .     S
C570   C539    1.451   1_565 A
C571   O587    1.285   .     A
C571   O588    1.338   .     A
N572   N573    1.448   .     A
N573   N574    1.392   .     A
N575   N576    1.320   .     A
N576   N577    1.353   .     A
N578   N579    1.366   .     A
N579   N580    1.394   .     A
O581   Cu593   1.936   .     S
O582   Cu594   1.951   .     S
O587   Cu1037  1.910   .     S
O588   Cu1038  1.971   .     S
O589   Cu1191  1.960   .     S
O590   Cu1200  1.955   .     S
O591   Cu1189  1.929   .     S
O592   Cu1198  1.939   .     S
Cu593  Cu594   2.649   .     S
Cu593  O657    1.974   .     S
Cu593  O1103   1.863   .     S
Cu594  O658    1.959   .     S
Cu594  O1104   1.932   .     S
H595   C612    0.941   .     S
H596   C614    0.941   .     S
H597   C617    0.940   .     S
H598   C619    0.939   .     S
H599   C621    0.941   .     S
H600   C623    0.940   .     S
H601   C625    0.938   .     S
H602   C627    0.939   .     S
H603   C629    0.939   .     S
H604   C633    0.941   .     S
H605   C635    0.943   .     S
H606   C637    0.941   .     S
H607   C639    0.941   .     S
H608   C642    0.938   .     S
H609   C644    0.939   .     S
C610   C611    1.586   .     S
C610   O655    1.180   .     A
C610   O656    1.303   .     A
C611   C612    1.282   .     A
C611   C642    1.433   .     A
C612   C613    1.346   .     A
C613   C644    1.451   .     A
C613   N646    1.502   .     S
C614   C615    1.465   .     A
C614   N646    1.216   .     A
C615   C616    1.435   .     S
C615   N648    1.134   .     A
C616   C617    1.429   .     A
C616   C621    1.427   .     A
C617   C618    1.234   .     A
C618   C619    1.604   .     A
C618   C641    1.516   .     S
C619   C620    1.299   .     A
C620   C621    1.473   .     A
C620   C622    1.357   .     S
C622   C623    1.571   .     A
C622   N649    1.281   .     A
C623   N651    1.282   .     A
C624   C625    1.528   .     A
C624   C629    1.312   .     A
C624   N651    1.368   .     S
C625   C626    1.439   .     A
C626   C627    1.298   .     A
C626   C640    1.358   .     S
C627   C628    1.405   .     A
C628   C629    1.457   .     A
C628   C630    1.443   .     S
C630   O665    1.290   .     A
C630   O666    1.271   1_545 A
C631   C632    1.484   .     S
C631   O657    1.220   .     A
C631   O658    1.342   .     A
C632   C633    1.341   .     A
C632   C637    1.344   .     A
C633   C634    1.439   .     A
C634   C635    1.316   .     A
C634   C638    1.390   .     S
C635   C636    1.376   .     A
C636   C637    1.435   .     A
C636   N652    1.411   .     S
C638   O663    1.385   .     A
C638   O664    1.280   .     A
C639   C641    1.440   .     A
C639   N652    1.374   .     A
C640   O659    1.367   .     A
C640   O660    1.325   .     A
C641   N654    1.152   .     A
C642   C643    1.346   .     A
C643   C644    1.371   .     A
C643   C645    1.448   .     S
C645   O661    1.285   .     A
C645   O662    1.338   .     A
N646   N647    1.448   .     A
N647   N648    1.392   .     A
N649   N650    1.320   .     A
N650   N651    1.353   .     A
N652   N653    1.366   .     A
N653   N654    1.394   .     A
O659   Cu889   1.863   .     S
O660   Cu890   1.932   .     S
O663   Cu1188  1.960   .     S
O664   Cu1195  1.955   .     S
O665   Cu1186  1.929   1_545 S
O666   C630    1.271   1_565 A
O666   Cu1193  1.939   .     S
Cu667  Cu668   2.649   .     S
Cu667  O731    1.974   .     S
Cu667  O1177   1.863   .     S
Cu668  O732    1.959   .     S
Cu668  O1178   1.932   .     S
H669   C686    0.941   .     S
H670   C688    0.941   1_655 S
H671   C691    0.940   .     S
H672   C693    0.939   .     S
H673   C695    0.941   .     S
H674   C697    0.940   .     S
H675   C699    0.938   .     S
H676   C701    0.939   .     S
H677   C703    0.939   .     S
H678   C707    0.941   .     S
H679   C709    0.943   .     S
H680   C711    0.941   .     S
H681   C713    0.941   .     S
H682   C716    0.938   .     S
H683   C718    0.939   .     S
C684   C685    1.586   .     S
C684   O729    1.180   .     A
C684   O730    1.303   .     A
C685   C686    1.282   .     A
C685   C716    1.433   .     A
C686   C687    1.346   .     A
C687   C718    1.451   1_455 A
C687   N720    1.502   .     S
C688   H670    0.941   1_455 S
C688   C689    1.465   .     A
C688   N720    1.216   .     A
C689   C690    1.435   .     S
C689   N722    1.134   .     A
C690   C691    1.429   1_455 A
C690   C695    1.427   .     A
C691   C690    1.429   1_655 A
C691   C692    1.234   .     A
C692   C693    1.604   .     A
C692   C715    1.516   .     S
C693   C694    1.299   1_655 A
C694   C693    1.299   1_455 A
C694   C695    1.473   .     A
C694   C696    1.357   .     S
C696   C697    1.571   .     A
C696   N723    1.281   .     A
C697   N725    1.282   .     A
C698   C699    1.528   .     A
C698   C703    1.312   .     A
C698   N725    1.368   .     S
C699   C700    1.439   .     A
C700   C701    1.298   .     A
C700   C714    1.358   .     S
C701   C702    1.405   .     A
C702   C703    1.457   .     A
C702   C704    1.443   .     S
C704   O739    1.290   .     A
C704   O740    1.271   .     A
C705   C706    1.484   .     S
C705   O731    1.220   .     A
C705   O732    1.342   .     A
C706   C707    1.341   .     A
C706   C711    1.344   .     A
C707   C708    1.439   .     A
C708   C709    1.316   .     A
C708   C712    1.390   .     S
C709   C710    1.376   .     A
C710   C711    1.435   .     A
C710   N726    1.411   .     S
C712   O737    1.385   .     A
C712   O738    1.280   .     A
C713   C715    1.440   .     A
C713   N726    1.374   .     A
C714   O733    1.367   .     A
C714   O734    1.325   .     A
C715   N728    1.152   .     A
C716   C717    1.346   1_455 A
C717   C716    1.346   1_655 A
C717   C718    1.371   .     A
C717   C719    1.448   .     S
C718   C687    1.451   1_655 A
C719   O735    1.285   .     A
C719   O736    1.338   .     A
N720   N721    1.448   .     A
N721   N722    1.392   .     A
N723   N724    1.320   .     A
N724   N725    1.353   .     A
N726   N727    1.366   .     A
N727   N728    1.394   .     A
O733   Cu963   1.863   .     S
O734   Cu964   1.932   .     S
O737   Cu1187  1.960   1_556 S
O738   Cu1196  1.955   1_556 S
O739   Cu1185  1.929   1_556 S
O740   Cu1194  1.939   1_556 S
Cu741  Cu742   2.649   .     S
Cu741  O805    1.974   .     S
Cu741  O955    1.863   .     S
Cu742  O806    1.959   .     S
Cu742  O956    1.932   .     S
H743   C760    0.941   .     S
H744   C762    0.941   .     S
H745   C765    0.940   .     S
H746   C767    0.939   .     S
H747   C769    0.941   .     S
H748   C771    0.940   .     S
H749   C773    0.938   .     S
H750   C775    0.939   .     S
H751   C777    0.939   .     S
H752   C781    0.941   .     S
H753   C783    0.943   .     S
H754   C785    0.941   .     S
H755   C787    0.941   .     S
H756   C790    0.938   .     S
H757   C792    0.939   .     S
C758   C759    1.586   .     S
C758   O803    1.180   .     A
C758   O804    1.303   .     A
C759   C760    1.282   .     A
C759   C790    1.433   .     A
C760   C761    1.346   .     A
C761   C792    1.451   .     A
C761   N794    1.502   .     S
C762   C763    1.465   .     A
C762   N794    1.216   .     A
C763   C764    1.435   .     S
C763   N796    1.134   .     A
C764   C765    1.429   .     A
C764   C769    1.427   .     A
C765   C766    1.234   .     A
C766   C767    1.604   .     A
C766   C789    1.516   .     S
C767   C768    1.299   .     A
C768   C769    1.473   .     A
C768   C770    1.357   .     S
C770   C771    1.571   .     A
C770   N797    1.281   .     A
C771   N799    1.282   .     A
C772   C773    1.528   .     A
C772   C777    1.312   .     A
C772   N799    1.368   .     S
C773   C774    1.439   .     A
C774   C775    1.298   .     A
C774   C788    1.358   .     S
C775   C776    1.405   .     A
C776   C777    1.457   .     A
C776   C778    1.443   .     S
C778   O813    1.290   .     A
C778   O814    1.271   1_565 A
C779   C780    1.484   .     S
C779   O805    1.220   .     A
C779   O806    1.342   .     A
C780   C781    1.341   .     A
C780   C785    1.344   .     A
C781   C782    1.439   .     A
C782   C783    1.316   .     A
C782   C786    1.390   .     S
C783   C784    1.376   .     A
C784   C785    1.435   .     A
C784   N800    1.411   .     S
C786   O811    1.385   .     A
C786   O812    1.280   .     A
C787   C789    1.440   .     A
C787   N800    1.374   .     A
C788   O807    1.367   .     A
C788   O808    1.325   .     A
C789   N802    1.152   .     A
C790   C791    1.346   .     A
C791   C792    1.371   .     A
C791   C793    1.448   .     S
C793   O809    1.285   .     A
C793   O810    1.338   .     A
N794   N795    1.448   .     A
N795   N796    1.392   .     A
N797   N798    1.320   .     A
N798   N799    1.353   .     A
N800   N801    1.366   .     A
N801   N802    1.394   .     A
O807   Cu1037  1.863   .     S
O808   Cu1038  1.932   .     S
O811   Cu1186  1.960   .     S
O812   Cu1193  1.955   .     S
O813   Cu1188  1.929   1_565 S
O814   C778    1.271   1_545 A
O814   Cu1195  1.939   .     S
Cu815  Cu816   2.649   .     S
Cu815  O879    1.974   .     S
Cu815  O1029   1.863   .     S
Cu816  O880    1.959   .     S
Cu816  O1030   1.932   .     S
H817   C834    0.941   .     S
H818   C836    0.941   1_455 S
H819   C839    0.940   .     S
H820   C841    0.939   .     S
H821   C843    0.941   .     S
H822   C845    0.940   .     S
H823   C847    0.938   .     S
H824   C849    0.939   .     S
H825   C851    0.939   .     S
H826   C855    0.941   .     S
H827   C857    0.943   .     S
H828   C859    0.941   .     S
H829   C861    0.941   .     S
H830   C864    0.938   .     S
H831   C866    0.939   .     S
C832   C833    1.586   .     S
C832   O877    1.180   .     A
C832   O878    1.303   .     A
C833   C834    1.282   .     A
C833   C864    1.433   .     A
C834   C835    1.346   .     A
C835   C866    1.451   1_655 A
C835   N868    1.502   .     S
C836   H818    0.941   1_655 S
C836   C837    1.465   .     A
C836   N868    1.216   .     A
C837   C838    1.435   .     S
C837   N870    1.134   .     A
C838   C839    1.429   1_655 A
C838   C843    1.427   .     A
C839   C838    1.429   1_455 A
C839   C840    1.234   .     A
C840   C841    1.604   .     A
C840   C863    1.516   .     S
C841   C842    1.299   1_455 A
C842   C841    1.299   1_655 A
C842   C843    1.473   .     A
C842   C844    1.357   .     S
C844   C845    1.571   .     A
C844   N871    1.281   .     A
C845   N873    1.282   .     A
C846   C847    1.528   .     A
C846   C851    1.312   .     A
C846   N873    1.368   .     S
C847   C848    1.439   .     A
C848   C849    1.298   .     A
C848   C862    1.358   .     S
C849   C850    1.405   .     A
C850   C851    1.457   .     A
C850   C852    1.443   .     S
C852   O887    1.290   .     A
C852   O888    1.271   .     A
C853   C854    1.484   .     S
C853   O879    1.220   .     A
C853   O880    1.342   .     A
C854   C855    1.341   .     A
C854   C859    1.344   .     A
C855   C856    1.439   .     A
C856   C857    1.316   .     A
C856   C860    1.390   .     S
C857   C858    1.376   .     A
C858   C859    1.435   .     A
C858   N874    1.411   .     S
C860   O885    1.385   .     A
C860   O886    1.280   .     A
C861   C863    1.440   .     A
C861   N874    1.374   .     A
C862   O881    1.367   .     A
C862   O882    1.325   .     A
C863   N876    1.152   .     A
C864   C865    1.346   1_655 A
C865   C864    1.346   1_455 A
C865   C866    1.371   .     A
C865   C867    1.448   .     S
C866   C835    1.451   1_455 A
C867   O883    1.285   .     A
C867   O884    1.338   .     A
N868   N869    1.448   .     A
N869   N870    1.392   .     A
N871   N872    1.320   .     A
N872   N873    1.353   .     A
N874   N875    1.366   .     A
N875   N876    1.394   .     A
O881   Cu1111  1.863   .     S
O882   Cu1112  1.932   .     S
O885   Cu1185  1.960   1_556 S
O886   Cu1194  1.955   1_556 S
O887   Cu1187  1.929   1_556 S
O888   Cu1196  1.939   1_556 S
Cu889  Cu890   2.649   .     S
Cu889  O953    1.974   .     S
Cu890  O954    1.959   .     S
H891   C908    0.941   .     S
H892   C910    0.941   .     S
H893   C913    0.940   .     S
H894   C915    0.939   .     S
H895   C917    0.941   .     S
H896   C919    0.940   .     S
H897   C921    0.938   .     S
H898   C923    0.939   .     S
H899   C925    0.939   .     S
H900   C929    0.941   .     S
H901   C931    0.943   .     S
H902   C933    0.941   .     S
H903   C935    0.941   .     S
H904   C938    0.938   .     S
H905   C940    0.939   .     S
C906   C907    1.586   .     S
C906   O951    1.180   .     A
C906   O952    1.303   .     A
C907   C908    1.282   .     A
C907   C938    1.433   .     A
C908   C909    1.346   .     A
C909   C940    1.451   .     A
C909   N942    1.502   .     S
C910   C911    1.465   .     A
C910   N942    1.216   .     A
C911   C912    1.435   .     S
C911   N944    1.134   .     A
C912   C913    1.429   .     A
C912   C917    1.427   .     A
C913   C914    1.234   .     A
C914   C915    1.604   .     A
C914   C937    1.516   .     S
C915   C916    1.299   .     A
C916   C917    1.473   .     A
C916   C918    1.357   .     S
C918   C919    1.571   .     A
C918   N945    1.281   .     A
C919   N947    1.282   .     A
C920   C921    1.528   .     A
C920   C925    1.312   .     A
C920   N947    1.368   .     S
C921   C922    1.439   .     A
C922   C923    1.298   .     A
C922   C936    1.358   .     S
C923   C924    1.405   .     A
C924   C925    1.457   .     A
C924   C926    1.443   .     S
C926   O961    1.290   .     A
C926   O962    1.271   1_655 A
C927   C928    1.484   .     S
C927   O953    1.220   .     A
C927   O954    1.342   .     A
C928   C929    1.341   .     A
C928   C933    1.344   .     A
C929   C930    1.439   .     A
C930   C931    1.316   .     A
C930   C934    1.390   .     S
C931   C932    1.376   .     A
C932   C933    1.435   .     A
C932   N948    1.411   .     S
C934   O959    1.385   .     A
C934   O960    1.280   .     A
C935   C937    1.440   .     A
C935   N948    1.374   .     A
C936   O955    1.367   .     A
C936   O956    1.325   .     A
C937   N950    1.152   .     A
C938   C939    1.346   .     A
C939   C940    1.371   .     A
C939   C941    1.448   .     S
C941   O957    1.285   .     A
C941   O958    1.338   .     A
N942   N943    1.448   .     A
N943   N944    1.392   .     A
N945   N946    1.320   .     A
N946   N947    1.353   .     A
N948   N949    1.366   .     A
N949   N950    1.394   .     A
O959   Cu1192  1.960   .     S
O960   Cu1199  1.955   .     S
O961   Cu1190  1.929   1_655 S
O962   C926    1.271   1_455 A
O962   Cu1197  1.939   .     S
Cu963  Cu964   2.649   .     S
Cu963  O1027   1.974   .     S
Cu964  O1028   1.959   .     S
H965   C982    0.941   .     S
H966   C984    0.941   1_565 S
H967   C987    0.940   .     S
H968   C989    0.939   .     S
H969   C991    0.941   .     S
H970   C993    0.940   .     S
H971   C995    0.938   .     S
H972   C997    0.939   .     S
H973   C999    0.939   .     S
H974   C1003   0.941   .     S
H975   C1005   0.943   .     S
H976   C1007   0.941   .     S
H977   C1009   0.941   .     S
H978   C1012   0.938   .     S
H979   C1014   0.939   .     S
C980   C981    1.586   .     S
C980   O1025   1.180   .     A
C980   O1026   1.303   .     A
C981   C982    1.282   .     A
C981   C1012   1.433   .     A
C982   C983    1.346   .     A
C983   C1014   1.451   1_545 A
C983   N1016   1.502   .     S
C984   H966    0.941   1_545 S
C984   C985    1.465   .     A
C984   N1016   1.216   .     A
C985   C986    1.435   .     S
C985   N1018   1.134   .     A
C986   C987    1.429   1_545 A
C986   C991    1.427   .     A
C987   C986    1.429   1_565 A
C987   C988    1.234   .     A
C988   C989    1.604   .     A
C988   C1011   1.516   .     S
C989   C990    1.299   1_565 A
C990   C989    1.299   1_545 A
C990   C991    1.473   .     A
C990   C992    1.357   .     S
C992   C993    1.571   .     A
C992   N1019   1.281   .     A
C993   N1021   1.282   .     A
C994   C995    1.528   .     A
C994   C999    1.312   .     A
C994   N1021   1.368   .     S
C995   C996    1.439   .     A
C996   C997    1.298   .     A
C996   C1010   1.358   .     S
C997   C998    1.405   .     A
C998   C999    1.457   .     A
C998   C1000   1.443   .     S
C1000  O1035   1.290   .     A
C1000  O1036   1.271   .     A
C1001  C1002   1.484   .     S
C1001  O1027   1.220   .     A
C1001  O1028   1.342   .     A
C1002  C1003   1.341   .     A
C1002  C1007   1.344   .     A
C1003  C1004   1.439   .     A
C1004  C1005   1.316   .     A
C1004  C1008   1.390   .     S
C1005  C1006   1.376   .     A
C1006  C1007   1.435   .     A
C1006  N1022   1.411   .     S
C1008  O1033   1.385   .     A
C1008  O1034   1.280   .     A
C1009  C1011   1.440   .     A
C1009  N1022   1.374   .     A
C1010  O1029   1.367   .     A
C1010  O1030   1.325   .     A
C1011  N1024   1.152   .     A
C1012  C1013   1.346   1_545 A
C1013  C1012   1.346   1_565 A
C1013  C1014   1.371   .     A
C1013  C1015   1.448   .     S
C1014  C983    1.451   1_565 A
C1015  O1031   1.285   .     A
C1015  O1032   1.338   .     A
N1016  N1017   1.448   .     A
N1017  N1018   1.392   .     A
N1019  N1020   1.320   .     A
N1020  N1021   1.353   .     A
N1022  N1023   1.366   .     A
N1023  N1024   1.394   .     A
O1033  Cu1191  1.960   1_556 S
O1034  Cu1200  1.955   1_556 S
O1035  Cu1189  1.929   1_556 S
O1036  Cu1198  1.939   1_556 S
Cu1037 Cu1038  2.649   .     S
Cu1037 O1101   1.974   .     S
Cu1038 O1102   1.959   .     S
H1039  C1056   0.941   .     S
H1040  C1058   0.941   .     S
H1041  C1061   0.940   .     S
H1042  C1063   0.939   .     S
H1043  C1065   0.941   .     S
H1044  C1067   0.940   .     S
H1045  C1069   0.938   .     S
H1046  C1071   0.939   .     S
H1047  C1073   0.939   .     S
H1048  C1077   0.941   .     S
H1049  C1079   0.943   .     S
H1050  C1081   0.941   .     S
H1051  C1083   0.941   .     S
H1052  C1086   0.938   .     S
H1053  C1088   0.939   .     S
C1054  C1055   1.586   .     S
C1054  O1099   1.180   .     A
C1054  O1100   1.303   .     A
C1055  C1056   1.282   .     A
C1055  C1086   1.433   .     A
C1056  C1057   1.346   .     A
C1057  C1088   1.451   .     A
C1057  N1090   1.502   .     S
C1058  C1059   1.465   .     A
C1058  N1090   1.216   .     A
C1059  C1060   1.435   .     S
C1059  N1092   1.134   .     A
C1060  C1061   1.429   .     A
C1060  C1065   1.427   .     A
C1061  C1062   1.234   .     A
C1062  C1063   1.604   .     A
C1062  C1085   1.516   .     S
C1063  C1064   1.299   .     A
C1064  C1065   1.473   .     A
C1064  C1066   1.357   .     S
C1066  C1067   1.571   .     A
C1066  N1093   1.281   .     A
C1067  N1095   1.282   .     A
C1068  C1069   1.528   .     A
C1068  C1073   1.312   .     A
C1068  N1095   1.368   .     S
C1069  C1070   1.439   .     A
C1070  C1071   1.298   .     A
C1070  C1084   1.358   .     S
C1071  C1072   1.405   .     A
C1072  C1073   1.457   .     A
C1072  C1074   1.443   .     S
C1074  O1109   1.290   .     A
C1074  O1110   1.271   1_455 A
C1075  C1076   1.484   .     S
C1075  O1101   1.220   .     A
C1075  O1102   1.342   .     A
C1076  C1077   1.341   .     A
C1076  C1081   1.344   .     A
C1077  C1078   1.439   .     A
C1078  C1079   1.316   .     A
C1078  C1082   1.390   .     S
C1079  C1080   1.376   .     A
C1080  C1081   1.435   .     A
C1080  N1096   1.411   .     S
C1082  O1107   1.385   .     A
C1082  O1108   1.280   .     A
C1083  C1085   1.440   .     A
C1083  N1096   1.374   .     A
C1084  O1103   1.367   .     A
C1084  O1104   1.325   .     A
C1085  N1098   1.152   .     A
C1086  C1087   1.346   .     A
C1087  C1088   1.371   .     A
C1087  C1089   1.448   .     S
C1089  O1105   1.285   .     A
C1089  O1106   1.338   .     A
N1090  N1091   1.448   .     A
N1091  N1092   1.392   .     A
N1093  N1094   1.320   .     A
N1094  N1095   1.353   .     A
N1096  N1097   1.366   .     A
N1097  N1098   1.394   .     A
O1107  Cu1190  1.960   .     S
O1108  Cu1197  1.955   .     S
O1109  Cu1192  1.929   1_455 S
O1110  C1074   1.271   1_655 A
O1110  Cu1199  1.939   .     S
Cu1111 Cu1112  2.649   .     S
Cu1111 O1175   1.974   .     S
Cu1112 O1176   1.959   .     S
H1113  C1130   0.941   .     S
H1114  C1132   0.941   1_545 S
H1115  C1135   0.940   .     S
H1116  C1137   0.939   .     S
H1117  C1139   0.941   .     S
H1118  C1141   0.940   .     S
H1119  C1143   0.938   .     S
H1120  C1145   0.939   .     S
H1121  C1147   0.939   .     S
H1122  C1151   0.941   .     S
H1123  C1153   0.943   .     S
H1124  C1155   0.941   .     S
H1125  C1157   0.941   .     S
H1126  C1160   0.938   .     S
H1127  C1162   0.939   .     S
C1128  C1129   1.586   .     S
C1128  O1173   1.180   .     A
C1128  O1174   1.303   .     A
C1129  C1130   1.282   .     A
C1129  C1160   1.433   .     A
C1130  C1131   1.346   .     A
C1131  C1162   1.451   1_565 A
C1131  N1164   1.502   .     S
C1132  H1114   0.941   1_565 S
C1132  C1133   1.465   .     A
C1132  N1164   1.216   .     A
C1133  C1134   1.435   .     S
C1133  N1166   1.134   .     A
C1134  C1135   1.429   1_565 A
C1134  C1139   1.427   .     A
C1135  C1134   1.429   1_545 A
C1135  C1136   1.234   .     A
C1136  C1137   1.604   .     A
C1136  C1159   1.516   .     S
C1137  C1138   1.299   1_545 A
C1138  C1137   1.299   1_565 A
C1138  C1139   1.473   .     A
C1138  C1140   1.357   .     S
C1140  C1141   1.571   .     A
C1140  N1167   1.281   .     A
C1141  N1169   1.282   .     A
C1142  C1143   1.528   .     A
C1142  C1147   1.312   .     A
C1142  N1169   1.368   .     S
C1143  C1144   1.439   .     A
C1144  C1145   1.298   .     A
C1144  C1158   1.358   .     S
C1145  C1146   1.405   .     A
C1146  C1147   1.457   .     A
C1146  C1148   1.443   .     S
C1148  O1183   1.290   .     A
C1148  O1184   1.271   .     A
C1149  C1150   1.484   .     S
C1149  O1175   1.220   .     A
C1149  O1176   1.342   .     A
C1150  C1151   1.341   .     A
C1150  C1155   1.344   .     A
C1151  C1152   1.439   .     A
C1152  C1153   1.316   .     A
C1152  C1156   1.390   .     S
C1153  C1154   1.376   .     A
C1154  C1155   1.435   .     A
C1154  N1170   1.411   .     S
C1156  O1181   1.385   .     A
C1156  O1182   1.280   .     A
C1157  C1159   1.440   .     A
C1157  N1170   1.374   .     A
C1158  O1177   1.367   .     A
C1158  O1178   1.325   .     A
C1159  N1172   1.152   .     A
C1160  C1161   1.346   1_565 A
C1161  C1160   1.346   1_545 A
C1161  C1162   1.371   .     A
C1161  C1163   1.448   .     S
C1162  C1131   1.451   1_545 A
C1163  O1179   1.285   .     A
C1163  O1180   1.338   .     A
N1164  N1165   1.448   .     A
N1165  N1166   1.392   .     A
N1167  N1168   1.320   .     A
N1168  N1169   1.353   .     A
N1170  N1171   1.366   .     A
N1171  N1172   1.394   .     A
O1181  Cu1189  1.960   1_556 S
O1182  Cu1198  1.955   1_556 S
O1183  Cu1191  1.929   1_556 S
O1184  Cu1200  1.939   1_556 S
Cu1185 Cu1194  2.656   .     S
Cu1185 O885    1.960   1_554 S
Cu1185 O739    1.929   1_554 S
Cu1186 Cu1193  2.656   .     S
Cu1186 O221    1.929   1_565 S
Cu1186 O665    1.929   1_565 S
Cu1187 Cu1196  2.656   .     S
Cu1187 O737    1.960   1_554 S
Cu1187 O887    1.929   1_554 S
Cu1188 Cu1195  2.656   .     S
Cu1188 O73     1.929   1_545 S
Cu1188 O813    1.929   1_545 S
Cu1189 Cu1198  2.656   .     S
Cu1189 O1181   1.960   1_554 S
Cu1189 O1035   1.929   1_554 S
Cu1190 Cu1197  2.656   .     S
Cu1190 O517    1.929   1_455 S
Cu1190 O961    1.929   1_455 S
Cu1191 Cu1200  2.656   .     S
Cu1191 O1033   1.960   1_554 S
Cu1191 O1183   1.929   1_554 S
Cu1192 Cu1199  2.656   .     S
Cu1192 O369    1.929   1_655 S
Cu1192 O1109   1.929   1_655 S
Cu1194 O886    1.955   1_554 S
Cu1194 O740    1.939   1_554 S
Cu1196 O738    1.955   1_554 S
Cu1196 O888    1.939   1_554 S
Cu1198 O1182   1.955   1_554 S
Cu1198 O1036   1.939   1_554 S
Cu1200 O1034   1.955   1_554 S
Cu1200 O1184   1.939   1_554 S
