data_VOGTIV_clean_h\(2)
_audit_creation_date              2015-01-20
_audit_creation_method            'Materials Studio'
_symmetry_space_group_name_H-M    'P1'
_symmetry_Int_Tables_number       1
_symmetry_cell_setting            triclinic
loop_
_symmetry_equiv_pos_as_xyz
  x,y,z
_cell_length_a                    27.0352
_cell_length_b                    30.3882
_cell_length_c                    30.3882
_cell_angle_alpha                 62.1589
_cell_angle_beta                  81.4729
_cell_angle_gamma                 98.5271
loop_
_atom_site_label
_atom_site_type_symbol
_atom_site_fract_x
_atom_site_fract_y
_atom_site_fract_z
_atom_site_U_iso_or_equiv
_atom_site_adp_type
_atom_site_occupancy
Mg1    Mg    0.09750   0.21012   0.15708   0.01267  Uiso   1.00
Mg2    Mg    0.17604   0.15708   0.13280   0.01267  Uiso   1.00
Mg3    Mg    0.24244   0.13280   0.21012   0.01267  Uiso   1.00
Mg4    Mg    0.15251   0.28988   0.34292   0.01267  Uiso   1.00
Mg5    Mg    0.07397   0.34292   0.36720   0.01267  Uiso   1.00
Mg6    Mg    0.00757   0.36720   0.28988   0.01267  Uiso   1.00
C7     C     0.19131   0.21902   0.19134   0.01267  Uiso   1.00
C8     C     0.22267   0.23115   0.22443   0.01267  Uiso   1.00
C9     C     0.20222   0.26788   0.23821   0.01267  Uiso   1.00
C10    C     0.01606   0.21897   0.23389   0.01267  Uiso   1.00
C11    C     0.03698   0.19134   0.08965   0.01267  Uiso   1.00
C12    C     0.08488   0.22443   0.04443   0.01267  Uiso   1.00
C13    C     0.07133   0.23821   0.49391   0.01267  Uiso   1.00
C14    C     0.13301   0.23389   0.04715   0.01267  Uiso   1.00
C15    C     0.08180   0.08965   0.21902   0.01267  Uiso   1.00
C16    C     0.10710   0.04443   0.23114   0.01267  Uiso   1.00
C17    C     0.06828   0.49391   0.26788   0.01267  Uiso   1.00
C18    C     0.15658   0.04714   0.21897   0.01267  Uiso   1.00
C19    C     0.05869   0.28098   0.30866   0.01267  Uiso   1.00
C20    C     0.02733   0.26886   0.27558   0.01267  Uiso   1.00
C21    C     0.04778   0.23212   0.26179   0.01267  Uiso   1.00
C22    C     0.23394   0.28104   0.26611   0.01267  Uiso   1.00
C23    C     0.21302   0.30866   0.41036   0.01267  Uiso   1.00
C24    C     0.16512   0.27557   0.45557   0.01267  Uiso   1.00
C25    C     0.17868   0.26179   0.00609   0.01267  Uiso   1.00
C26    C     0.11699   0.26611   0.45285   0.01267  Uiso   1.00
C27    C     0.16819   0.41036   0.28098   0.01267  Uiso   1.00
C28    C     0.14290   0.45557   0.26886   0.01267  Uiso   1.00
C29    C     0.18172   0.00609   0.23212   0.01267  Uiso   1.00
C30    C     0.09342   0.45286   0.28104   0.01267  Uiso   1.00
O31    O     0.15071   0.23751   0.18437   0.01267  Uiso   1.00
O32    O     0.20508   0.19030   0.17620   0.01267  Uiso   1.00
O33    O     0.03375   0.18574   0.21933   0.01267  Uiso   1.00
O34    O     0.24289   0.18437   0.07813   0.01267  Uiso   1.00
O35    O     0.04317   0.17620   0.13350   0.01267  Uiso   1.00
O36    O     0.14342   0.21933   0.09493   0.01267  Uiso   1.00
O37    O     0.03195   0.07813   0.23751   0.01267  Uiso   1.00
O38    O     0.10993   0.13350   0.19030   0.01267  Uiso   1.00
O39    O     0.19088   0.09493   0.18575   0.01267  Uiso   1.00
O40    O     0.09929   0.26249   0.31564   0.01267  Uiso   1.00
O41    O     0.04492   0.30970   0.32380   0.01267  Uiso   1.00
O42    O     0.21625   0.31426   0.28067   0.01267  Uiso   1.00
O43    O     0.00711   0.31564   0.42188   0.01267  Uiso   1.00
O44    O     0.20682   0.32380   0.36650   0.01267  Uiso   1.00
O45    O     0.10658   0.28067   0.40508   0.01267  Uiso   1.00
O46    O     0.21805   0.42187   0.26249   0.01267  Uiso   1.00
O47    O     0.14008   0.36650   0.30970   0.01267  Uiso   1.00
O48    O     0.05912   0.40507   0.31426   0.01267  Uiso   1.00
H49    H     0.16651   0.28065   0.22618   0.01267  Uiso   1.00
H50    H     0.02959   0.22617   0.49318   0.01267  Uiso   1.00
H51    H     0.02619   0.49318   0.28064   0.01267  Uiso   1.00
H52    H     0.08239   0.21510   0.27019   0.01267  Uiso   1.00
H53    H     0.21749   0.27019   0.01472   0.01267  Uiso   1.00
H54    H     0.22381   0.00682   0.21936   0.01267  Uiso   1.00
Mg55   Mg    0.34750   0.21012   0.15708   0.01267  Uiso   1.00
Mg56   Mg    0.42604   0.15708   0.13280   0.01267  Uiso   1.00
Mg57   Mg    0.49244   0.13280   0.21012   0.01267  Uiso   1.00
Mg58   Mg    0.40251   0.28988   0.34292   0.01267  Uiso   1.00
Mg59   Mg    0.32397   0.34292   0.36720   0.01267  Uiso   1.00
Mg60   Mg    0.25756   0.36720   0.28988   0.01267  Uiso   1.00
C61    C     0.44131   0.21901   0.19134   0.01267  Uiso   1.00
C62    C     0.47267   0.23115   0.22443   0.01267  Uiso   1.00
C63    C     0.45222   0.26788   0.23821   0.01267  Uiso   1.00
C64    C     0.26606   0.21897   0.23389   0.01267  Uiso   1.00
C65    C     0.28698   0.19134   0.08965   0.01267  Uiso   1.00
C66    C     0.33488   0.22443   0.04443   0.01267  Uiso   1.00
C67    C     0.32132   0.23821   0.49391   0.01267  Uiso   1.00
C68    C     0.38301   0.23389   0.04715   0.01267  Uiso   1.00
C69    C     0.33181   0.08965   0.21902   0.01267  Uiso   1.00
C70    C     0.35710   0.04443   0.23114   0.01267  Uiso   1.00
C71    C     0.31828   0.49391   0.26788   0.01267  Uiso   1.00
C72    C     0.40658   0.04714   0.21897   0.01267  Uiso   1.00
C73    C     0.30869   0.28098   0.30866   0.01267  Uiso   1.00
C74    C     0.27733   0.26886   0.27558   0.01267  Uiso   1.00
C75    C     0.29778   0.23212   0.26179   0.01267  Uiso   1.00
C76    C     0.48394   0.28103   0.26611   0.01267  Uiso   1.00
C77    C     0.46302   0.30866   0.41036   0.01267  Uiso   1.00
C78    C     0.41512   0.27557   0.45557   0.01267  Uiso   1.00
C79    C     0.42868   0.26179   0.00609   0.01267  Uiso   1.00
C80    C     0.36699   0.26611   0.45285   0.01267  Uiso   1.00
C81    C     0.41820   0.41036   0.28098   0.01267  Uiso   1.00
C82    C     0.39290   0.45557   0.26886   0.01267  Uiso   1.00
C83    C     0.43172   0.00609   0.23212   0.01267  Uiso   1.00
C84    C     0.34342   0.45285   0.28104   0.01267  Uiso   1.00
O85    O     0.40071   0.23751   0.18436   0.01267  Uiso   1.00
O86    O     0.45508   0.19030   0.17620   0.01267  Uiso   1.00
O87    O     0.28375   0.18574   0.21933   0.01267  Uiso   1.00
O88    O     0.49289   0.18437   0.07813   0.01267  Uiso   1.00
O89    O     0.29317   0.17620   0.13350   0.01267  Uiso   1.00
O90    O     0.39342   0.21933   0.09493   0.01267  Uiso   1.00
O91    O     0.28195   0.07813   0.23751   0.01267  Uiso   1.00
O92    O     0.35992   0.13350   0.19030   0.01267  Uiso   1.00
O93    O     0.44088   0.09493   0.18575   0.01267  Uiso   1.00
O94    O     0.34929   0.26249   0.31564   0.01267  Uiso   1.00
O95    O     0.29493   0.30970   0.32380   0.01267  Uiso   1.00
O96    O     0.46625   0.31426   0.28067   0.01267  Uiso   1.00
O97    O     0.25711   0.31564   0.42188   0.01267  Uiso   1.00
O98    O     0.45683   0.32380   0.36650   0.01267  Uiso   1.00
O99    O     0.35658   0.28067   0.40508   0.01267  Uiso   1.00
O100   O     0.46805   0.42187   0.26249   0.01267  Uiso   1.00
O101   O     0.39008   0.36650   0.30970   0.01267  Uiso   1.00
O102   O     0.30912   0.40507   0.31425   0.01267  Uiso   1.00
H103   H     0.41651   0.28064   0.22618   0.01267  Uiso   1.00
H104   H     0.27960   0.22617   0.49318   0.01267  Uiso   1.00
H105   H     0.27619   0.49318   0.28064   0.01267  Uiso   1.00
H106   H     0.33239   0.21510   0.27019   0.01267  Uiso   1.00
H107   H     0.46749   0.27018   0.01472   0.01267  Uiso   1.00
H108   H     0.47381   0.00682   0.21936   0.01267  Uiso   1.00
Mg109  Mg    0.09750   0.71012   0.15708   0.01267  Uiso   1.00
Mg110  Mg    0.17604   0.65708   0.13280   0.01267  Uiso   1.00
Mg111  Mg    0.24244   0.63280   0.21012   0.01267  Uiso   1.00
Mg112  Mg    0.15251   0.78988   0.34292   0.01267  Uiso   1.00
Mg113  Mg    0.07397   0.84292   0.36720   0.01267  Uiso   1.00
Mg114  Mg    0.00757   0.86720   0.28988   0.01267  Uiso   1.00
C115   C     0.19131   0.71901   0.19134   0.01267  Uiso   1.00
C116   C     0.22267   0.73115   0.22443   0.01267  Uiso   1.00
C117   C     0.20222   0.76788   0.23821   0.01267  Uiso   1.00
C118   C     0.01606   0.71897   0.23389   0.01267  Uiso   1.00
C119   C     0.03698   0.69134   0.08965   0.01267  Uiso   1.00
C120   C     0.08488   0.72443   0.04443   0.01267  Uiso   1.00
C121   C     0.07133   0.73821   0.49391   0.01267  Uiso   1.00
C122   C     0.13301   0.73389   0.04715   0.01267  Uiso   1.00
C123   C     0.08180   0.58965   0.21902   0.01267  Uiso   1.00
C124   C     0.10710   0.54443   0.23114   0.01267  Uiso   1.00
C125   C     0.06828   0.99391   0.26788   0.01267  Uiso   1.00
C126   C     0.15658   0.54714   0.21897   0.01267  Uiso   1.00
C127   C     0.05869   0.78098   0.30866   0.01267  Uiso   1.00
C128   C     0.02733   0.76886   0.27558   0.01267  Uiso   1.00
C129   C     0.04778   0.73212   0.26179   0.01267  Uiso   1.00
C130   C     0.23394   0.78103   0.26611   0.01267  Uiso   1.00
C131   C     0.21302   0.80866   0.41036   0.01267  Uiso   1.00
C132   C     0.16512   0.77558   0.45557   0.01267  Uiso   1.00
C133   C     0.17868   0.76179   0.00609   0.01267  Uiso   1.00
C134   C     0.11699   0.76611   0.45285   0.01267  Uiso   1.00
C135   C     0.16819   0.91036   0.28098   0.01267  Uiso   1.00
C136   C     0.14290   0.95557   0.26886   0.01267  Uiso   1.00
C137   C     0.18172   0.50609   0.23212   0.01267  Uiso   1.00
C138   C     0.09342   0.95286   0.28104   0.01267  Uiso   1.00
O139   O     0.15071   0.73751   0.18437   0.01267  Uiso   1.00
O140   O     0.20508   0.69030   0.17620   0.01267  Uiso   1.00
O141   O     0.03375   0.68574   0.21933   0.01267  Uiso   1.00
O142   O     0.24289   0.68437   0.07813   0.01267  Uiso   1.00
O143   O     0.04317   0.67620   0.13350   0.01267  Uiso   1.00
O144   O     0.14342   0.71933   0.09493   0.01267  Uiso   1.00
O145   O     0.03195   0.57813   0.23751   0.01267  Uiso   1.00
O146   O     0.10993   0.63350   0.19030   0.01267  Uiso   1.00
O147   O     0.19088   0.59493   0.18575   0.01267  Uiso   1.00
O148   O     0.09929   0.76249   0.31564   0.01267  Uiso   1.00
O149   O     0.04492   0.80970   0.32380   0.01267  Uiso   1.00
O150   O     0.21625   0.81426   0.28067   0.01267  Uiso   1.00
O151   O     0.00711   0.81563   0.42188   0.01267  Uiso   1.00
O152   O     0.20682   0.82380   0.36650   0.01267  Uiso   1.00
O153   O     0.10658   0.78067   0.40507   0.01267  Uiso   1.00
O154   O     0.21805   0.92188   0.26249   0.01267  Uiso   1.00
O155   O     0.14008   0.86650   0.30970   0.01267  Uiso   1.00
O156   O     0.05912   0.90507   0.31426   0.01267  Uiso   1.00
H157   H     0.16651   0.78065   0.22618   0.01267  Uiso   1.00
H158   H     0.02959   0.72617   0.49318   0.01267  Uiso   1.00
H159   H     0.02619   0.99318   0.28065   0.01267  Uiso   1.00
H160   H     0.08239   0.71510   0.27019   0.01267  Uiso   1.00
H161   H     0.21749   0.77019   0.01472   0.01267  Uiso   1.00
H162   H     0.22381   0.50682   0.21936   0.01267  Uiso   1.00
Mg163  Mg    0.34750   0.71012   0.15708   0.01267  Uiso   1.00
Mg164  Mg    0.42604   0.65708   0.13280   0.01267  Uiso   1.00
Mg165  Mg    0.49244   0.63280   0.21012   0.01267  Uiso   1.00
Mg166  Mg    0.40251   0.78988   0.34292   0.01267  Uiso   1.00
Mg167  Mg    0.32397   0.84292   0.36720   0.01267  Uiso   1.00
Mg168  Mg    0.25756   0.86720   0.28988   0.01267  Uiso   1.00
C169   C     0.44131   0.71901   0.19134   0.01267  Uiso   1.00
C170   C     0.47267   0.73115   0.22443   0.01267  Uiso   1.00
C171   C     0.45222   0.76788   0.23821   0.01267  Uiso   1.00
C172   C     0.26606   0.71897   0.23389   0.01267  Uiso   1.00
C173   C     0.28698   0.69134   0.08965   0.01267  Uiso   1.00
C174   C     0.33488   0.72443   0.04443   0.01267  Uiso   1.00
C175   C     0.32132   0.73821   0.49391   0.01267  Uiso   1.00
C176   C     0.38301   0.73389   0.04714   0.01267  Uiso   1.00
C177   C     0.33181   0.58965   0.21902   0.01267  Uiso   1.00
C178   C     0.35710   0.54443   0.23114   0.01267  Uiso   1.00
C179   C     0.31828   0.99391   0.26788   0.01267  Uiso   1.00
C180   C     0.40658   0.54715   0.21897   0.01267  Uiso   1.00
C181   C     0.30869   0.78098   0.30866   0.01267  Uiso   1.00
C182   C     0.27733   0.76886   0.27558   0.01267  Uiso   1.00
C183   C     0.29778   0.73212   0.26179   0.01267  Uiso   1.00
C184   C     0.48394   0.78104   0.26611   0.01267  Uiso   1.00
C185   C     0.46302   0.80866   0.41036   0.01267  Uiso   1.00
C186   C     0.41512   0.77558   0.45557   0.01267  Uiso   1.00
C187   C     0.42868   0.76179   0.00609   0.01267  Uiso   1.00
C188   C     0.36699   0.76611   0.45285   0.01267  Uiso   1.00
C189   C     0.41820   0.91036   0.28098   0.01267  Uiso   1.00
C190   C     0.39290   0.95557   0.26886   0.01267  Uiso   1.00
C191   C     0.43172   0.50609   0.23212   0.01267  Uiso   1.00
C192   C     0.34342   0.95285   0.28104   0.01267  Uiso   1.00
O193   O     0.40071   0.73751   0.18437   0.01267  Uiso   1.00
O194   O     0.45508   0.69030   0.17620   0.01267  Uiso   1.00
O195   O     0.28375   0.68575   0.21933   0.01267  Uiso   1.00
O196   O     0.49289   0.68437   0.07813   0.01267  Uiso   1.00
O197   O     0.29317   0.67620   0.13350   0.01267  Uiso   1.00
O198   O     0.39342   0.71933   0.09493   0.01267  Uiso   1.00
O199   O     0.28195   0.57813   0.23751   0.01267  Uiso   1.00
O200   O     0.35992   0.63350   0.19030   0.01267  Uiso   1.00
O201   O     0.44088   0.59492   0.18575   0.01267  Uiso   1.00
O202   O     0.34929   0.76249   0.31564   0.01267  Uiso   1.00
O203   O     0.29493   0.80970   0.32380   0.01267  Uiso   1.00
O204   O     0.46625   0.81426   0.28067   0.01267  Uiso   1.00
O205   O     0.25711   0.81563   0.42187   0.01267  Uiso   1.00
O206   O     0.45683   0.82380   0.36650   0.01267  Uiso   1.00
O207   O     0.35658   0.78067   0.40507   0.01267  Uiso   1.00
O208   O     0.46805   0.92187   0.26249   0.01267  Uiso   1.00
O209   O     0.39008   0.86650   0.30970   0.01267  Uiso   1.00
O210   O     0.30912   0.90507   0.31426   0.01267  Uiso   1.00
H211   H     0.41651   0.78065   0.22618   0.01267  Uiso   1.00
H212   H     0.27960   0.72618   0.49318   0.01267  Uiso   1.00
H213   H     0.27619   0.99318   0.28065   0.01267  Uiso   1.00
H214   H     0.33239   0.71510   0.27019   0.01267  Uiso   1.00
H215   H     0.46749   0.77019   0.01472   0.01267  Uiso   1.00
H216   H     0.47381   0.50682   0.21935   0.01267  Uiso   1.00
Mg217  Mg    0.09750   0.21012   0.65708   0.01267  Uiso   1.00
Mg218  Mg    0.17604   0.15708   0.63280   0.01267  Uiso   1.00
Mg219  Mg    0.24244   0.13280   0.71012   0.01267  Uiso   1.00
Mg220  Mg    0.15251   0.28988   0.84292   0.01267  Uiso   1.00
Mg221  Mg    0.07397   0.34292   0.86720   0.01267  Uiso   1.00
Mg222  Mg    0.00757   0.36720   0.78988   0.01267  Uiso   1.00
C223   C     0.19131   0.21902   0.69134   0.01267  Uiso   1.00
C224   C     0.22267   0.23115   0.72443   0.01267  Uiso   1.00
C225   C     0.20222   0.26788   0.73821   0.01267  Uiso   1.00
C226   C     0.01606   0.21897   0.73389   0.01267  Uiso   1.00
C227   C     0.03698   0.19134   0.58965   0.01267  Uiso   1.00
C228   C     0.08488   0.22443   0.54443   0.01267  Uiso   1.00
C229   C     0.07133   0.23821   0.99391   0.01267  Uiso   1.00
C230   C     0.13301   0.23389   0.54715   0.01267  Uiso   1.00
C231   C     0.08180   0.08965   0.71902   0.01267  Uiso   1.00
C232   C     0.10710   0.04443   0.73114   0.01267  Uiso   1.00
C233   C     0.06828   0.49391   0.76788   0.01267  Uiso   1.00
C234   C     0.15658   0.04714   0.71897   0.01267  Uiso   1.00
C235   C     0.05869   0.28098   0.80866   0.01267  Uiso   1.00
C236   C     0.02733   0.26886   0.77558   0.01267  Uiso   1.00
C237   C     0.04778   0.23212   0.76179   0.01267  Uiso   1.00
C238   C     0.23394   0.28104   0.76611   0.01267  Uiso   1.00
C239   C     0.21302   0.30866   0.91036   0.01267  Uiso   1.00
C240   C     0.16512   0.27557   0.95557   0.01267  Uiso   1.00
C241   C     0.17868   0.26179   0.50609   0.01267  Uiso   1.00
C242   C     0.11699   0.26611   0.95285   0.01267  Uiso   1.00
C243   C     0.16819   0.41036   0.78099   0.01267  Uiso   1.00
C244   C     0.14290   0.45557   0.76885   0.01267  Uiso   1.00
C245   C     0.18172   0.00609   0.73212   0.01267  Uiso   1.00
C246   C     0.09342   0.45286   0.78104   0.01267  Uiso   1.00
O247   O     0.15071   0.23751   0.68436   0.01267  Uiso   1.00
O248   O     0.20508   0.19030   0.67620   0.01267  Uiso   1.00
O249   O     0.03375   0.18574   0.71933   0.01267  Uiso   1.00
O250   O     0.24289   0.18437   0.57813   0.01267  Uiso   1.00
O251   O     0.04317   0.17620   0.63350   0.01267  Uiso   1.00
O252   O     0.14342   0.21933   0.59492   0.01267  Uiso   1.00
O253   O     0.03195   0.07813   0.73751   0.01267  Uiso   1.00
O254   O     0.10993   0.13350   0.69030   0.01267  Uiso   1.00
O255   O     0.19088   0.09493   0.68575   0.01267  Uiso   1.00
O256   O     0.09929   0.26249   0.81564   0.01267  Uiso   1.00
O257   O     0.04492   0.30970   0.82380   0.01267  Uiso   1.00
O258   O     0.21625   0.31426   0.78067   0.01267  Uiso   1.00
O259   O     0.00711   0.31564   0.92187   0.01267  Uiso   1.00
O260   O     0.20682   0.32380   0.86650   0.01267  Uiso   1.00
O261   O     0.10658   0.28067   0.90508   0.01267  Uiso   1.00
O262   O     0.21805   0.42187   0.76249   0.01267  Uiso   1.00
O263   O     0.14008   0.36650   0.80970   0.01267  Uiso   1.00
O264   O     0.05912   0.40507   0.81426   0.01267  Uiso   1.00
H265   H     0.16651   0.28065   0.72618   0.01267  Uiso   1.00
H266   H     0.02959   0.22617   0.99318   0.01267  Uiso   1.00
H267   H     0.02619   0.49318   0.78064   0.01267  Uiso   1.00
H268   H     0.08239   0.21510   0.77019   0.01267  Uiso   1.00
H269   H     0.21749   0.27019   0.51472   0.01267  Uiso   1.00
H270   H     0.22381   0.00682   0.71936   0.01267  Uiso   1.00
Mg271  Mg    0.34750   0.21012   0.65708   0.01267  Uiso   1.00
Mg272  Mg    0.42604   0.15708   0.63280   0.01267  Uiso   1.00
Mg273  Mg    0.49244   0.13280   0.71012   0.01267  Uiso   1.00
Mg274  Mg    0.40251   0.28988   0.84292   0.01267  Uiso   1.00
Mg275  Mg    0.32397   0.34292   0.86720   0.01267  Uiso   1.00
Mg276  Mg    0.25756   0.36720   0.78988   0.01267  Uiso   1.00
C277   C     0.44131   0.21901   0.69134   0.01267  Uiso   1.00
C278   C     0.47267   0.23115   0.72443   0.01267  Uiso   1.00
C279   C     0.45222   0.26788   0.73821   0.01267  Uiso   1.00
C280   C     0.26606   0.21897   0.73389   0.01267  Uiso   1.00
C281   C     0.28698   0.19134   0.58965   0.01267  Uiso   1.00
C282   C     0.33488   0.22443   0.54443   0.01267  Uiso   1.00
C283   C     0.32132   0.23821   0.99391   0.01267  Uiso   1.00
C284   C     0.38301   0.23389   0.54715   0.01267  Uiso   1.00
C285   C     0.33181   0.08965   0.71902   0.01267  Uiso   1.00
C286   C     0.35710   0.04443   0.73114   0.01267  Uiso   1.00
C287   C     0.31828   0.49391   0.76788   0.01267  Uiso   1.00
C288   C     0.40658   0.04714   0.71897   0.01267  Uiso   1.00
C289   C     0.30869   0.28098   0.80866   0.01267  Uiso   1.00
C290   C     0.27733   0.26886   0.77558   0.01267  Uiso   1.00
C291   C     0.29778   0.23212   0.76179   0.01267  Uiso   1.00
C292   C     0.48394   0.28103   0.76611   0.01267  Uiso   1.00
C293   C     0.46302   0.30866   0.91035   0.01267  Uiso   1.00
C294   C     0.41512   0.27557   0.95557   0.01267  Uiso   1.00
C295   C     0.42868   0.26179   0.50609   0.01267  Uiso   1.00
C296   C     0.36699   0.26611   0.95286   0.01267  Uiso   1.00
C297   C     0.41820   0.41036   0.78099   0.01267  Uiso   1.00
C298   C     0.39290   0.45557   0.76886   0.01267  Uiso   1.00
C299   C     0.43172   0.00609   0.73212   0.01267  Uiso   1.00
C300   C     0.34342   0.45285   0.78104   0.01267  Uiso   1.00
O301   O     0.40071   0.23751   0.68437   0.01267  Uiso   1.00
O302   O     0.45508   0.19030   0.67620   0.01267  Uiso   1.00
O303   O     0.28375   0.18574   0.71933   0.01267  Uiso   1.00
O304   O     0.49289   0.18437   0.57813   0.01267  Uiso   1.00
O305   O     0.29317   0.17620   0.63350   0.01267  Uiso   1.00
O306   O     0.39342   0.21933   0.59493   0.01267  Uiso   1.00
O307   O     0.28195   0.07813   0.73751   0.01267  Uiso   1.00
O308   O     0.35992   0.13350   0.69030   0.01267  Uiso   1.00
O309   O     0.44088   0.09493   0.68575   0.01267  Uiso   1.00
O310   O     0.34929   0.26249   0.81564   0.01267  Uiso   1.00
O311   O     0.29493   0.30970   0.82380   0.01267  Uiso   1.00
O312   O     0.46625   0.31426   0.78067   0.01267  Uiso   1.00
O313   O     0.25711   0.31564   0.92188   0.01267  Uiso   1.00
O314   O     0.45683   0.32380   0.86650   0.01267  Uiso   1.00
O315   O     0.35658   0.28067   0.90508   0.01267  Uiso   1.00
O316   O     0.46805   0.42187   0.76249   0.01267  Uiso   1.00
O317   O     0.39008   0.36650   0.80970   0.01267  Uiso   1.00
O318   O     0.30912   0.40507   0.81425   0.01267  Uiso   1.00
H319   H     0.41651   0.28064   0.72618   0.01267  Uiso   1.00
H320   H     0.27960   0.22617   0.99318   0.01267  Uiso   1.00
H321   H     0.27619   0.49318   0.78065   0.01267  Uiso   1.00
H322   H     0.33239   0.21510   0.77019   0.01267  Uiso   1.00
H323   H     0.46749   0.27018   0.51472   0.01267  Uiso   1.00
H324   H     0.47381   0.00682   0.71935   0.01267  Uiso   1.00
Mg325  Mg    0.09750   0.71012   0.65708   0.01267  Uiso   1.00
Mg326  Mg    0.17604   0.65708   0.63280   0.01267  Uiso   1.00
Mg327  Mg    0.24244   0.63280   0.71012   0.01267  Uiso   1.00
Mg328  Mg    0.15251   0.78988   0.84292   0.01267  Uiso   1.00
Mg329  Mg    0.07397   0.84292   0.86720   0.01267  Uiso   1.00
Mg330  Mg    0.00757   0.86720   0.78988   0.01267  Uiso   1.00
C331   C     0.19131   0.71901   0.69134   0.01267  Uiso   1.00
C332   C     0.22267   0.73115   0.72443   0.01267  Uiso   1.00
C333   C     0.20222   0.76788   0.73821   0.01267  Uiso   1.00
C334   C     0.01606   0.71897   0.73389   0.01267  Uiso   1.00
C335   C     0.03698   0.69134   0.58965   0.01267  Uiso   1.00
C336   C     0.08488   0.72443   0.54443   0.01267  Uiso   1.00
C337   C     0.07133   0.73821   0.99391   0.01267  Uiso   1.00
C338   C     0.13301   0.73389   0.54714   0.01267  Uiso   1.00
C339   C     0.08180   0.58965   0.71902   0.01267  Uiso   1.00
C340   C     0.10710   0.54443   0.73114   0.01267  Uiso   1.00
C341   C     0.06828   0.99391   0.76788   0.01267  Uiso   1.00
C342   C     0.15658   0.54714   0.71896   0.01267  Uiso   1.00
C343   C     0.05869   0.78098   0.80866   0.01267  Uiso   1.00
C344   C     0.02733   0.76886   0.77558   0.01267  Uiso   1.00
C345   C     0.04778   0.73212   0.76179   0.01267  Uiso   1.00
C346   C     0.23394   0.78103   0.76611   0.01267  Uiso   1.00
C347   C     0.21302   0.80866   0.91036   0.01267  Uiso   1.00
C348   C     0.16512   0.77558   0.95557   0.01267  Uiso   1.00
C349   C     0.17868   0.76179   0.50609   0.01267  Uiso   1.00
C350   C     0.11699   0.76611   0.95285   0.01267  Uiso   1.00
C351   C     0.16819   0.91036   0.78099   0.01267  Uiso   1.00
C352   C     0.14290   0.95557   0.76886   0.01267  Uiso   1.00
C353   C     0.18172   0.50609   0.73212   0.01267  Uiso   1.00
C354   C     0.09342   0.95286   0.78104   0.01267  Uiso   1.00
O355   O     0.15071   0.73751   0.68436   0.01267  Uiso   1.00
O356   O     0.20508   0.69030   0.67620   0.01267  Uiso   1.00
O357   O     0.03375   0.68574   0.71933   0.01267  Uiso   1.00
O358   O     0.24289   0.68437   0.57813   0.01267  Uiso   1.00
O359   O     0.04317   0.67620   0.63350   0.01267  Uiso   1.00
O360   O     0.14342   0.71933   0.59493   0.01267  Uiso   1.00
O361   O     0.03195   0.57813   0.73751   0.01267  Uiso   1.00
O362   O     0.10993   0.63350   0.69030   0.01267  Uiso   1.00
O363   O     0.19088   0.59493   0.68574   0.01267  Uiso   1.00
O364   O     0.09929   0.76249   0.81564   0.01267  Uiso   1.00
O365   O     0.04492   0.80970   0.82380   0.01267  Uiso   1.00
O366   O     0.21625   0.81426   0.78067   0.01267  Uiso   1.00
O367   O     0.00711   0.81563   0.92188   0.01267  Uiso   1.00
O368   O     0.20682   0.82380   0.86650   0.01267  Uiso   1.00
O369   O     0.10658   0.78067   0.90508   0.01267  Uiso   1.00
O370   O     0.21805   0.92188   0.76249   0.01267  Uiso   1.00
O371   O     0.14008   0.86650   0.80970   0.01267  Uiso   1.00
O372   O     0.05912   0.90507   0.81425   0.01267  Uiso   1.00
H373   H     0.16651   0.78065   0.72618   0.01267  Uiso   1.00
H374   H     0.02959   0.72617   0.99318   0.01267  Uiso   1.00
H375   H     0.02619   0.99318   0.78064   0.01267  Uiso   1.00
H376   H     0.08239   0.71510   0.77018   0.01267  Uiso   1.00
H377   H     0.21749   0.77019   0.51472   0.01267  Uiso   1.00
H378   H     0.22381   0.50682   0.71935   0.01267  Uiso   1.00
Mg379  Mg    0.34750   0.71012   0.65708   0.01267  Uiso   1.00
Mg380  Mg    0.42604   0.65708   0.63280   0.01267  Uiso   1.00
Mg381  Mg    0.49244   0.63280   0.71012   0.01267  Uiso   1.00
Mg382  Mg    0.40251   0.78988   0.84292   0.01267  Uiso   1.00
Mg383  Mg    0.32397   0.84292   0.86720   0.01267  Uiso   1.00
Mg384  Mg    0.25756   0.86720   0.78988   0.01267  Uiso   1.00
C385   C     0.44131   0.71901   0.69134   0.01267  Uiso   1.00
C386   C     0.47267   0.73115   0.72443   0.01267  Uiso   1.00
C387   C     0.45222   0.76788   0.73821   0.01267  Uiso   1.00
C388   C     0.26606   0.71897   0.73389   0.01267  Uiso   1.00
C389   C     0.28698   0.69134   0.58965   0.01267  Uiso   1.00
C390   C     0.33488   0.72443   0.54443   0.01267  Uiso   1.00
C391   C     0.32132   0.73821   0.99391   0.01267  Uiso   1.00
C392   C     0.38301   0.73389   0.54715   0.01267  Uiso   1.00
C393   C     0.33181   0.58965   0.71902   0.01267  Uiso   1.00
C394   C     0.35710   0.54443   0.73115   0.01267  Uiso   1.00
C395   C     0.31828   0.99391   0.76788   0.01267  Uiso   1.00
C396   C     0.40658   0.54715   0.71897   0.01267  Uiso   1.00
C397   C     0.30869   0.78098   0.80866   0.01267  Uiso   1.00
C398   C     0.27733   0.76886   0.77558   0.01267  Uiso   1.00
C399   C     0.29778   0.73212   0.76179   0.01267  Uiso   1.00
C400   C     0.48394   0.78104   0.76611   0.01267  Uiso   1.00
C401   C     0.46302   0.80866   0.91035   0.01267  Uiso   1.00
C402   C     0.41512   0.77558   0.95557   0.01267  Uiso   1.00
C403   C     0.42868   0.76179   0.50609   0.01267  Uiso   1.00
C404   C     0.36699   0.76611   0.95285   0.01267  Uiso   1.00
C405   C     0.41820   0.91036   0.78099   0.01267  Uiso   1.00
C406   C     0.39290   0.95557   0.76886   0.01267  Uiso   1.00
C407   C     0.43172   0.50609   0.73212   0.01267  Uiso   1.00
C408   C     0.34342   0.95285   0.78104   0.01267  Uiso   1.00
O409   O     0.40071   0.73751   0.68436   0.01267  Uiso   1.00
O410   O     0.45508   0.69030   0.67620   0.01267  Uiso   1.00
O411   O     0.28375   0.68575   0.71933   0.01267  Uiso   1.00
O412   O     0.49289   0.68437   0.57813   0.01267  Uiso   1.00
O413   O     0.29317   0.67620   0.63350   0.01267  Uiso   1.00
O414   O     0.39342   0.71933   0.59493   0.01267  Uiso   1.00
O415   O     0.28195   0.57813   0.73751   0.01267  Uiso   1.00
O416   O     0.35992   0.63350   0.69030   0.01267  Uiso   1.00
O417   O     0.44088   0.59492   0.68575   0.01267  Uiso   1.00
O418   O     0.34929   0.76249   0.81564   0.01267  Uiso   1.00
O419   O     0.29493   0.80970   0.82380   0.01267  Uiso   1.00
O420   O     0.46625   0.81426   0.78067   0.01267  Uiso   1.00
O421   O     0.25711   0.81563   0.92188   0.01267  Uiso   1.00
O422   O     0.45683   0.82380   0.86650   0.01267  Uiso   1.00
O423   O     0.35658   0.78067   0.90508   0.01267  Uiso   1.00
O424   O     0.46805   0.92187   0.76249   0.01267  Uiso   1.00
O425   O     0.39008   0.86650   0.80970   0.01267  Uiso   1.00
O426   O     0.30912   0.90507   0.81426   0.01267  Uiso   1.00
H427   H     0.41651   0.78065   0.72618   0.01267  Uiso   1.00
H428   H     0.27960   0.72618   0.99318   0.01267  Uiso   1.00
H429   H     0.27619   0.99318   0.78065   0.01267  Uiso   1.00
H430   H     0.33239   0.71510   0.77019   0.01267  Uiso   1.00
H431   H     0.46749   0.77019   0.51472   0.01267  Uiso   1.00
H432   H     0.47381   0.50682   0.71936   0.01267  Uiso   1.00
Mg433  Mg    0.59750   0.21012   0.15708   0.01267  Uiso   1.00
Mg434  Mg    0.67604   0.15708   0.13280   0.01267  Uiso   1.00
Mg435  Mg    0.74244   0.13280   0.21012   0.01267  Uiso   1.00
Mg436  Mg    0.65251   0.28988   0.34292   0.01267  Uiso   1.00
Mg437  Mg    0.57397   0.34292   0.36720   0.01267  Uiso   1.00
Mg438  Mg    0.50757   0.36720   0.28988   0.01267  Uiso   1.00
C439   C     0.69131   0.21902   0.19134   0.01267  Uiso   1.00
C440   C     0.72267   0.23115   0.22443   0.01267  Uiso   1.00
C441   C     0.70222   0.26788   0.23821   0.01267  Uiso   1.00
C442   C     0.51606   0.21897   0.23389   0.01267  Uiso   1.00
C443   C     0.53698   0.19134   0.08965   0.01267  Uiso   1.00
C444   C     0.58488   0.22443   0.04443   0.01267  Uiso   1.00
C445   C     0.57133   0.23821   0.49391   0.01267  Uiso   1.00
C446   C     0.63301   0.23389   0.04715   0.01267  Uiso   1.00
C447   C     0.58180   0.08965   0.21902   0.01267  Uiso   1.00
C448   C     0.60710   0.04443   0.23114   0.01267  Uiso   1.00
C449   C     0.56828   0.49391   0.26788   0.01267  Uiso   1.00
C450   C     0.65658   0.04714   0.21897   0.01267  Uiso   1.00
C451   C     0.55869   0.28098   0.30866   0.01267  Uiso   1.00
C452   C     0.52733   0.26886   0.27558   0.01267  Uiso   1.00
C453   C     0.54778   0.23212   0.26179   0.01267  Uiso   1.00
C454   C     0.73394   0.28103   0.26611   0.01267  Uiso   1.00
C455   C     0.71302   0.30866   0.41036   0.01267  Uiso   1.00
C456   C     0.66512   0.27557   0.45557   0.01267  Uiso   1.00
C457   C     0.67868   0.26179   0.00609   0.01267  Uiso   1.00
C458   C     0.61699   0.26611   0.45285   0.01267  Uiso   1.00
C459   C     0.66819   0.41036   0.28098   0.01267  Uiso   1.00
C460   C     0.64290   0.45557   0.26886   0.01267  Uiso   1.00
C461   C     0.68172   0.00609   0.23212   0.01267  Uiso   1.00
C462   C     0.59342   0.45285   0.28104   0.01267  Uiso   1.00
O463   O     0.65071   0.23751   0.18436   0.01267  Uiso   1.00
O464   O     0.70508   0.19030   0.17620   0.01267  Uiso   1.00
O465   O     0.53375   0.18574   0.21933   0.01267  Uiso   1.00
O466   O     0.74289   0.18437   0.07813   0.01267  Uiso   1.00
O467   O     0.54317   0.17620   0.13350   0.01267  Uiso   1.00
O468   O     0.64342   0.21933   0.09493   0.01267  Uiso   1.00
O469   O     0.53195   0.07813   0.23751   0.01267  Uiso   1.00
O470   O     0.60993   0.13350   0.19030   0.01267  Uiso   1.00
O471   O     0.69088   0.09493   0.18575   0.01267  Uiso   1.00
O472   O     0.59929   0.26249   0.31564   0.01267  Uiso   1.00
O473   O     0.54492   0.30970   0.32380   0.01267  Uiso   1.00
O474   O     0.71625   0.31426   0.28067   0.01267  Uiso   1.00
O475   O     0.50711   0.31564   0.42188   0.01267  Uiso   1.00
O476   O     0.70682   0.32380   0.36650   0.01267  Uiso   1.00
O477   O     0.60658   0.28067   0.40508   0.01267  Uiso   1.00
O478   O     0.71805   0.42188   0.26249   0.01267  Uiso   1.00
O479   O     0.64008   0.36650   0.30970   0.01267  Uiso   1.00
O480   O     0.55912   0.40507   0.31425   0.01267  Uiso   1.00
H481   H     0.66651   0.28065   0.22618   0.01267  Uiso   1.00
H482   H     0.52959   0.22617   0.49318   0.01267  Uiso   1.00
H483   H     0.52619   0.49318   0.28064   0.01267  Uiso   1.00
H484   H     0.58239   0.21510   0.27019   0.01267  Uiso   1.00
H485   H     0.71749   0.27019   0.01472   0.01267  Uiso   1.00
H486   H     0.72381   0.00682   0.21936   0.01267  Uiso   1.00
Mg487  Mg    0.84750   0.21012   0.15708   0.01267  Uiso   1.00
Mg488  Mg    0.92604   0.15708   0.13280   0.01267  Uiso   1.00
Mg489  Mg    0.99244   0.13280   0.21012   0.01267  Uiso   1.00
Mg490  Mg    0.90251   0.28988   0.34292   0.01267  Uiso   1.00
Mg491  Mg    0.82397   0.34292   0.36720   0.01267  Uiso   1.00
Mg492  Mg    0.75756   0.36720   0.28988   0.01267  Uiso   1.00
C493   C     0.94131   0.21901   0.19134   0.01267  Uiso   1.00
C494   C     0.97267   0.23115   0.22443   0.01267  Uiso   1.00
C495   C     0.95222   0.26788   0.23821   0.01267  Uiso   1.00
C496   C     0.76606   0.21897   0.23389   0.01267  Uiso   1.00
C497   C     0.78698   0.19134   0.08965   0.01267  Uiso   1.00
C498   C     0.83488   0.22442   0.04443   0.01267  Uiso   1.00
C499   C     0.82132   0.23821   0.49391   0.01267  Uiso   1.00
C500   C     0.88301   0.23389   0.04715   0.01267  Uiso   1.00
C501   C     0.83181   0.08965   0.21901   0.01267  Uiso   1.00
C502   C     0.85710   0.04443   0.23114   0.01267  Uiso   1.00
C503   C     0.81828   0.49391   0.26788   0.01267  Uiso   1.00
C504   C     0.90658   0.04714   0.21897   0.01267  Uiso   1.00
C505   C     0.80869   0.28098   0.30866   0.01267  Uiso   1.00
C506   C     0.77733   0.26886   0.27558   0.01267  Uiso   1.00
C507   C     0.79778   0.23212   0.26179   0.01267  Uiso   1.00
C508   C     0.98394   0.28103   0.26611   0.01267  Uiso   1.00
C509   C     0.96302   0.30866   0.41036   0.01267  Uiso   1.00
C510   C     0.91512   0.27557   0.45557   0.01267  Uiso   1.00
C511   C     0.92868   0.26179   0.00609   0.01267  Uiso   1.00
C512   C     0.86699   0.26611   0.45285   0.01267  Uiso   1.00
C513   C     0.91820   0.41036   0.28098   0.01267  Uiso   1.00
C514   C     0.89290   0.45557   0.26886   0.01267  Uiso   1.00
C515   C     0.93172   0.00609   0.23212   0.01267  Uiso   1.00
C516   C     0.84342   0.45285   0.28104   0.01267  Uiso   1.00
O517   O     0.90071   0.23751   0.18437   0.01267  Uiso   1.00
O518   O     0.95508   0.19030   0.17620   0.01267  Uiso   1.00
O519   O     0.78375   0.18574   0.21933   0.01267  Uiso   1.00
O520   O     0.99289   0.18437   0.07813   0.01267  Uiso   1.00
O521   O     0.79317   0.17620   0.13350   0.01267  Uiso   1.00
O522   O     0.89342   0.21933   0.09493   0.01267  Uiso   1.00
O523   O     0.78195   0.07813   0.23751   0.01267  Uiso   1.00
O524   O     0.85992   0.13350   0.19030   0.01267  Uiso   1.00
O525   O     0.94088   0.09493   0.18575   0.01267  Uiso   1.00
O526   O     0.84929   0.26249   0.31564   0.01267  Uiso   1.00
O527   O     0.79493   0.30970   0.32380   0.01267  Uiso   1.00
O528   O     0.96625   0.31426   0.28067   0.01267  Uiso   1.00
O529   O     0.75711   0.31564   0.42188   0.01267  Uiso   1.00
O530   O     0.95683   0.32380   0.36650   0.01267  Uiso   1.00
O531   O     0.85658   0.28067   0.40508   0.01267  Uiso   1.00
O532   O     0.96805   0.42187   0.26249   0.01267  Uiso   1.00
O533   O     0.89008   0.36650   0.30970   0.01267  Uiso   1.00
O534   O     0.80912   0.40507   0.31425   0.01267  Uiso   1.00
H535   H     0.91651   0.28064   0.22618   0.01267  Uiso   1.00
H536   H     0.77960   0.22617   0.49318   0.01267  Uiso   1.00
H537   H     0.77619   0.49318   0.28065   0.01267  Uiso   1.00
H538   H     0.83239   0.21510   0.27019   0.01267  Uiso   1.00
H539   H     0.96749   0.27018   0.01472   0.01267  Uiso   1.00
H540   H     0.97381   0.00682   0.21936   0.01267  Uiso   1.00
Mg541  Mg    0.59750   0.71012   0.15708   0.01267  Uiso   1.00
Mg542  Mg    0.67604   0.65708   0.13280   0.01267  Uiso   1.00
Mg543  Mg    0.74244   0.63280   0.21012   0.01267  Uiso   1.00
Mg544  Mg    0.65251   0.78988   0.34292   0.01267  Uiso   1.00
Mg545  Mg    0.57397   0.84292   0.36720   0.01267  Uiso   1.00
Mg546  Mg    0.50757   0.86720   0.28988   0.01267  Uiso   1.00
C547   C     0.69131   0.71901   0.19134   0.01267  Uiso   1.00
C548   C     0.72267   0.73114   0.22443   0.01267  Uiso   1.00
C549   C     0.70222   0.76788   0.23821   0.01267  Uiso   1.00
C550   C     0.51606   0.71897   0.23389   0.01267  Uiso   1.00
C551   C     0.53698   0.69134   0.08965   0.01267  Uiso   1.00
C552   C     0.58488   0.72443   0.04443   0.01267  Uiso   1.00
C553   C     0.57133   0.73821   0.49391   0.01267  Uiso   1.00
C554   C     0.63301   0.73389   0.04715   0.01267  Uiso   1.00
C555   C     0.58180   0.58965   0.21902   0.01267  Uiso   1.00
C556   C     0.60710   0.54443   0.23114   0.01267  Uiso   1.00
C557   C     0.56828   0.99391   0.26788   0.01267  Uiso   1.00
C558   C     0.65658   0.54714   0.21897   0.01267  Uiso   1.00
C559   C     0.55869   0.78098   0.30866   0.01267  Uiso   1.00
C560   C     0.52733   0.76886   0.27558   0.01267  Uiso   1.00
C561   C     0.54778   0.73212   0.26179   0.01267  Uiso   1.00
C562   C     0.73394   0.78103   0.26611   0.01267  Uiso   1.00
C563   C     0.71302   0.80866   0.41035   0.01267  Uiso   1.00
C564   C     0.66512   0.77557   0.45557   0.01267  Uiso   1.00
C565   C     0.67868   0.76179   0.00609   0.01267  Uiso   1.00
C566   C     0.61699   0.76611   0.45285   0.01267  Uiso   1.00
C567   C     0.66819   0.91036   0.28099   0.01267  Uiso   1.00
C568   C     0.64290   0.95557   0.26886   0.01267  Uiso   1.00
C569   C     0.68172   0.50609   0.23212   0.01267  Uiso   1.00
C570   C     0.59342   0.95286   0.28104   0.01267  Uiso   1.00
O571   O     0.65071   0.73751   0.18437   0.01267  Uiso   1.00
O572   O     0.70508   0.69030   0.17620   0.01267  Uiso   1.00
O573   O     0.53375   0.68575   0.21933   0.01267  Uiso   1.00
O574   O     0.74289   0.68437   0.07813   0.01267  Uiso   1.00
O575   O     0.54317   0.67620   0.13350   0.01267  Uiso   1.00
O576   O     0.64342   0.71933   0.09493   0.01267  Uiso   1.00
O577   O     0.53195   0.57813   0.23751   0.01267  Uiso   1.00
O578   O     0.60993   0.63350   0.19030   0.01267  Uiso   1.00
O579   O     0.69088   0.59493   0.18574   0.01267  Uiso   1.00
O580   O     0.59929   0.76249   0.31564   0.01267  Uiso   1.00
O581   O     0.54492   0.80970   0.32380   0.01267  Uiso   1.00
O582   O     0.71625   0.81426   0.28067   0.01267  Uiso   1.00
O583   O     0.50711   0.81563   0.42188   0.01267  Uiso   1.00
O584   O     0.70682   0.82380   0.36650   0.01267  Uiso   1.00
O585   O     0.60658   0.78067   0.40507   0.01267  Uiso   1.00
O586   O     0.71805   0.92188   0.26249   0.01267  Uiso   1.00
O587   O     0.64008   0.86650   0.30970   0.01267  Uiso   1.00
O588   O     0.55912   0.90507   0.31425   0.01267  Uiso   1.00
H589   H     0.66651   0.78065   0.22618   0.01267  Uiso   1.00
H590   H     0.52959   0.72617   0.49318   0.01267  Uiso   1.00
H591   H     0.52619   0.99318   0.28065   0.01267  Uiso   1.00
H592   H     0.58239   0.71510   0.27019   0.01267  Uiso   1.00
H593   H     0.71749   0.77019   0.01472   0.01267  Uiso   1.00
H594   H     0.72381   0.50682   0.21935   0.01267  Uiso   1.00
Mg595  Mg    0.84750   0.71012   0.15708   0.01267  Uiso   1.00
Mg596  Mg    0.92604   0.65708   0.13280   0.01267  Uiso   1.00
Mg597  Mg    0.99244   0.63280   0.21012   0.01267  Uiso   1.00
Mg598  Mg    0.90251   0.78988   0.34292   0.01267  Uiso   1.00
Mg599  Mg    0.82397   0.84292   0.36720   0.01267  Uiso   1.00
Mg600  Mg    0.75756   0.86720   0.28988   0.01267  Uiso   1.00
C601   C     0.94131   0.71901   0.19134   0.01267  Uiso   1.00
C602   C     0.97267   0.73114   0.22443   0.01267  Uiso   1.00
C603   C     0.95222   0.76788   0.23821   0.01267  Uiso   1.00
C604   C     0.76606   0.71897   0.23389   0.01267  Uiso   1.00
C605   C     0.78698   0.69134   0.08965   0.01267  Uiso   1.00
C606   C     0.83488   0.72443   0.04443   0.01267  Uiso   1.00
C607   C     0.82132   0.73821   0.49391   0.01267  Uiso   1.00
C608   C     0.88301   0.73389   0.04714   0.01267  Uiso   1.00
C609   C     0.83181   0.58965   0.21902   0.01267  Uiso   1.00
C610   C     0.85710   0.54443   0.23114   0.01267  Uiso   1.00
C611   C     0.81828   0.99391   0.26788   0.01267  Uiso   1.00
C612   C     0.90658   0.54714   0.21897   0.01267  Uiso   1.00
C613   C     0.80869   0.78098   0.30866   0.01267  Uiso   1.00
C614   C     0.77733   0.76886   0.27558   0.01267  Uiso   1.00
C615   C     0.79778   0.73212   0.26179   0.01267  Uiso   1.00
C616   C     0.98394   0.78104   0.26611   0.01267  Uiso   1.00
C617   C     0.96302   0.80866   0.41036   0.01267  Uiso   1.00
C618   C     0.91512   0.77557   0.45557   0.01267  Uiso   1.00
C619   C     0.92868   0.76179   0.00609   0.01267  Uiso   1.00
C620   C     0.86699   0.76611   0.45285   0.01267  Uiso   1.00
C621   C     0.91820   0.91036   0.28098   0.01267  Uiso   1.00
C622   C     0.89290   0.95557   0.26886   0.01267  Uiso   1.00
C623   C     0.93172   0.50609   0.23212   0.01267  Uiso   1.00
C624   C     0.84342   0.95285   0.28104   0.01267  Uiso   1.00
O625   O     0.90071   0.73751   0.18436   0.01267  Uiso   1.00
O626   O     0.95508   0.69030   0.17620   0.01267  Uiso   1.00
O627   O     0.78375   0.68574   0.21933   0.01267  Uiso   1.00
O628   O     0.99289   0.68437   0.07813   0.01267  Uiso   1.00
O629   O     0.79317   0.67620   0.13350   0.01267  Uiso   1.00
O630   O     0.89342   0.71933   0.09493   0.01267  Uiso   1.00
O631   O     0.78195   0.57813   0.23751   0.01267  Uiso   1.00
O632   O     0.85992   0.63350   0.19030   0.01267  Uiso   1.00
O633   O     0.94088   0.59492   0.18575   0.01267  Uiso   1.00
O634   O     0.84929   0.76249   0.31564   0.01267  Uiso   1.00
O635   O     0.79493   0.80970   0.32380   0.01267  Uiso   1.00
O636   O     0.96625   0.81426   0.28067   0.01267  Uiso   1.00
O637   O     0.75711   0.81563   0.42188   0.01267  Uiso   1.00
O638   O     0.95683   0.82380   0.36650   0.01267  Uiso   1.00
O639   O     0.85658   0.78067   0.40507   0.01267  Uiso   1.00
O640   O     0.96805   0.92187   0.26249   0.01267  Uiso   1.00
O641   O     0.89008   0.86650   0.30970   0.01267  Uiso   1.00
O642   O     0.80912   0.90507   0.31426   0.01267  Uiso   1.00
H643   H     0.91651   0.78065   0.22618   0.01267  Uiso   1.00
H644   H     0.77960   0.72617   0.49318   0.01267  Uiso   1.00
H645   H     0.77619   0.99318   0.28065   0.01267  Uiso   1.00
H646   H     0.83239   0.71510   0.27019   0.01267  Uiso   1.00
H647   H     0.96749   0.77019   0.01472   0.01267  Uiso   1.00
H648   H     0.97381   0.50682   0.21936   0.01267  Uiso   1.00
Mg649  Mg    0.59750   0.21012   0.65708   0.01267  Uiso   1.00
Mg650  Mg    0.67604   0.15708   0.63280   0.01267  Uiso   1.00
Mg651  Mg    0.74244   0.13280   0.71012   0.01267  Uiso   1.00
Mg652  Mg    0.65251   0.28988   0.84292   0.01267  Uiso   1.00
Mg653  Mg    0.57397   0.34292   0.86720   0.01267  Uiso   1.00
Mg654  Mg    0.50757   0.36720   0.78988   0.01267  Uiso   1.00
C655   C     0.69131   0.21902   0.69134   0.01267  Uiso   1.00
C656   C     0.72267   0.23115   0.72443   0.01267  Uiso   1.00
C657   C     0.70222   0.26788   0.73821   0.01267  Uiso   1.00
C658   C     0.51606   0.21897   0.73389   0.01267  Uiso   1.00
C659   C     0.53698   0.19134   0.58965   0.01267  Uiso   1.00
C660   C     0.58488   0.22443   0.54443   0.01267  Uiso   1.00
C661   C     0.57133   0.23821   0.99391   0.01267  Uiso   1.00
C662   C     0.63301   0.23389   0.54715   0.01267  Uiso   1.00
C663   C     0.58180   0.08965   0.71902   0.01267  Uiso   1.00
C664   C     0.60710   0.04443   0.73114   0.01267  Uiso   1.00
C665   C     0.56828   0.49391   0.76788   0.01267  Uiso   1.00
C666   C     0.65658   0.04714   0.71897   0.01267  Uiso   1.00
C667   C     0.55869   0.28098   0.80866   0.01267  Uiso   1.00
C668   C     0.52733   0.26886   0.77558   0.01267  Uiso   1.00
C669   C     0.54778   0.23212   0.76179   0.01267  Uiso   1.00
C670   C     0.73394   0.28103   0.76611   0.01267  Uiso   1.00
C671   C     0.71302   0.30866   0.91036   0.01267  Uiso   1.00
C672   C     0.66512   0.27557   0.95557   0.01267  Uiso   1.00
C673   C     0.67868   0.26179   0.50609   0.01267  Uiso   1.00
C674   C     0.61699   0.26611   0.95285   0.01267  Uiso   1.00
C675   C     0.66819   0.41036   0.78099   0.01267  Uiso   1.00
C676   C     0.64290   0.45557   0.76885   0.01267  Uiso   1.00
C677   C     0.68172   0.00609   0.73212   0.01267  Uiso   1.00
C678   C     0.59342   0.45285   0.78104   0.01267  Uiso   1.00
O679   O     0.65071   0.23751   0.68436   0.01267  Uiso   1.00
O680   O     0.70508   0.19030   0.67620   0.01267  Uiso   1.00
O681   O     0.53375   0.18574   0.71933   0.01267  Uiso   1.00
O682   O     0.74289   0.18437   0.57813   0.01267  Uiso   1.00
O683   O     0.54317   0.17620   0.63350   0.01267  Uiso   1.00
O684   O     0.64342   0.21933   0.59492   0.01267  Uiso   1.00
O685   O     0.53195   0.07813   0.73751   0.01267  Uiso   1.00
O686   O     0.60993   0.13350   0.69030   0.01267  Uiso   1.00
O687   O     0.69088   0.09493   0.68575   0.01267  Uiso   1.00
O688   O     0.59929   0.26249   0.81564   0.01267  Uiso   1.00
O689   O     0.54492   0.30970   0.82380   0.01267  Uiso   1.00
O690   O     0.71625   0.31426   0.78067   0.01267  Uiso   1.00
O691   O     0.50711   0.31564   0.92187   0.01267  Uiso   1.00
O692   O     0.70682   0.32380   0.86650   0.01267  Uiso   1.00
O693   O     0.60658   0.28067   0.90508   0.01267  Uiso   1.00
O694   O     0.71805   0.42188   0.76249   0.01267  Uiso   1.00
O695   O     0.64008   0.36650   0.80970   0.01267  Uiso   1.00
O696   O     0.55912   0.40507   0.81426   0.01267  Uiso   1.00
H697   H     0.66651   0.28065   0.72618   0.01267  Uiso   1.00
H698   H     0.52959   0.22617   0.99318   0.01267  Uiso   1.00
H699   H     0.52619   0.49318   0.78064   0.01267  Uiso   1.00
H700   H     0.58239   0.21510   0.77019   0.01267  Uiso   1.00
H701   H     0.71749   0.27019   0.51472   0.01267  Uiso   1.00
H702   H     0.72381   0.00682   0.71936   0.01267  Uiso   1.00
Mg703  Mg    0.84750   0.21012   0.65708   0.01267  Uiso   1.00
Mg704  Mg    0.92604   0.15708   0.63280   0.01267  Uiso   1.00
Mg705  Mg    0.99244   0.13280   0.71012   0.01267  Uiso   1.00
Mg706  Mg    0.90251   0.28988   0.84292   0.01267  Uiso   1.00
Mg707  Mg    0.82397   0.34292   0.86720   0.01267  Uiso   1.00
Mg708  Mg    0.75756   0.36720   0.78988   0.01267  Uiso   1.00
C709   C     0.94131   0.21901   0.69134   0.01267  Uiso   1.00
C710   C     0.97267   0.23115   0.72443   0.01267  Uiso   1.00
C711   C     0.95222   0.26788   0.73821   0.01267  Uiso   1.00
C712   C     0.76606   0.21897   0.73389   0.01267  Uiso   1.00
C713   C     0.78698   0.19134   0.58965   0.01267  Uiso   1.00
C714   C     0.83488   0.22442   0.54443   0.01267  Uiso   1.00
C715   C     0.82132   0.23821   0.99391   0.01267  Uiso   1.00
C716   C     0.88301   0.23389   0.54715   0.01267  Uiso   1.00
C717   C     0.83181   0.08965   0.71902   0.01267  Uiso   1.00
C718   C     0.85710   0.04443   0.73114   0.01267  Uiso   1.00
C719   C     0.81828   0.49391   0.76788   0.01267  Uiso   1.00
C720   C     0.90658   0.04714   0.71897   0.01267  Uiso   1.00
C721   C     0.80869   0.28098   0.80866   0.01267  Uiso   1.00
C722   C     0.77733   0.26886   0.77558   0.01267  Uiso   1.00
C723   C     0.79778   0.23212   0.76179   0.01267  Uiso   1.00
C724   C     0.98394   0.28103   0.76611   0.01267  Uiso   1.00
C725   C     0.96302   0.30866   0.91035   0.01267  Uiso   1.00
C726   C     0.91512   0.27557   0.95557   0.01267  Uiso   1.00
C727   C     0.92868   0.26179   0.50609   0.01267  Uiso   1.00
C728   C     0.86699   0.26611   0.95285   0.01267  Uiso   1.00
C729   C     0.91820   0.41036   0.78099   0.01267  Uiso   1.00
C730   C     0.89290   0.45557   0.76886   0.01267  Uiso   1.00
C731   C     0.93172   0.00609   0.73212   0.01267  Uiso   1.00
C732   C     0.84342   0.45285   0.78104   0.01267  Uiso   1.00
O733   O     0.90071   0.23751   0.68437   0.01267  Uiso   1.00
O734   O     0.95508   0.19030   0.67620   0.01267  Uiso   1.00
O735   O     0.78375   0.18574   0.71933   0.01267  Uiso   1.00
O736   O     0.99289   0.18437   0.57813   0.01267  Uiso   1.00
O737   O     0.79317   0.17620   0.63350   0.01267  Uiso   1.00
O738   O     0.89342   0.21933   0.59493   0.01267  Uiso   1.00
O739   O     0.78195   0.07813   0.73751   0.01267  Uiso   1.00
O740   O     0.85992   0.13350   0.69030   0.01267  Uiso   1.00
O741   O     0.94088   0.09493   0.68575   0.01267  Uiso   1.00
O742   O     0.84929   0.26249   0.81564   0.01267  Uiso   1.00
O743   O     0.79493   0.30970   0.82380   0.01267  Uiso   1.00
O744   O     0.96625   0.31426   0.78067   0.01267  Uiso   1.00
O745   O     0.75711   0.31564   0.92188   0.01267  Uiso   1.00
O746   O     0.95683   0.32380   0.86650   0.01267  Uiso   1.00
O747   O     0.85658   0.28067   0.90508   0.01267  Uiso   1.00
O748   O     0.96805   0.42187   0.76249   0.01267  Uiso   1.00
O749   O     0.89008   0.36650   0.80970   0.01267  Uiso   1.00
O750   O     0.80912   0.40507   0.81426   0.01267  Uiso   1.00
H751   H     0.91651   0.28064   0.72618   0.01267  Uiso   1.00
H752   H     0.77960   0.22617   0.99318   0.01267  Uiso   1.00
H753   H     0.77619   0.49318   0.78065   0.01267  Uiso   1.00
H754   H     0.83239   0.21510   0.77019   0.01267  Uiso   1.00
H755   H     0.96749   0.27018   0.51472   0.01267  Uiso   1.00
H756   H     0.97381   0.00682   0.71935   0.01267  Uiso   1.00
Mg757  Mg    0.59750   0.71012   0.65708   0.01267  Uiso   1.00
Mg758  Mg    0.67604   0.65708   0.63280   0.01267  Uiso   1.00
Mg759  Mg    0.74244   0.63280   0.71012   0.01267  Uiso   1.00
Mg760  Mg    0.65251   0.78988   0.84292   0.01267  Uiso   1.00
Mg761  Mg    0.57397   0.84292   0.86720   0.01267  Uiso   1.00
Mg762  Mg    0.50757   0.86720   0.78988   0.01267  Uiso   1.00
C763   C     0.69131   0.71901   0.69134   0.01267  Uiso   1.00
C764   C     0.72267   0.73114   0.72443   0.01267  Uiso   1.00
C765   C     0.70222   0.76788   0.73821   0.01267  Uiso   1.00
C766   C     0.51606   0.71897   0.73389   0.01267  Uiso   1.00
C767   C     0.53698   0.69134   0.58965   0.01267  Uiso   1.00
C768   C     0.58488   0.72443   0.54443   0.01267  Uiso   1.00
C769   C     0.57133   0.73821   0.99391   0.01267  Uiso   1.00
C770   C     0.63301   0.73389   0.54714   0.01267  Uiso   1.00
C771   C     0.58180   0.58965   0.71902   0.01267  Uiso   1.00
C772   C     0.60710   0.54443   0.73114   0.01267  Uiso   1.00
C773   C     0.56828   0.99391   0.76788   0.01267  Uiso   1.00
C774   C     0.65658   0.54714   0.71897   0.01267  Uiso   1.00
C775   C     0.55869   0.78098   0.80866   0.01267  Uiso   1.00
C776   C     0.52733   0.76886   0.77558   0.01267  Uiso   1.00
C777   C     0.54778   0.73212   0.76179   0.01267  Uiso   1.00
C778   C     0.73394   0.78103   0.76611   0.01267  Uiso   1.00
C779   C     0.71302   0.80866   0.91036   0.01267  Uiso   1.00
C780   C     0.66512   0.77557   0.95557   0.01267  Uiso   1.00
C781   C     0.67868   0.76179   0.50609   0.01267  Uiso   1.00
C782   C     0.61699   0.76611   0.95285   0.01267  Uiso   1.00
C783   C     0.66819   0.91036   0.78099   0.01267  Uiso   1.00
C784   C     0.64290   0.95557   0.76886   0.01267  Uiso   1.00
C785   C     0.68172   0.50609   0.73212   0.01267  Uiso   1.00
C786   C     0.59342   0.95286   0.78104   0.01267  Uiso   1.00
O787   O     0.65071   0.73751   0.68436   0.01267  Uiso   1.00
O788   O     0.70508   0.69030   0.67620   0.01267  Uiso   1.00
O789   O     0.53375   0.68575   0.71933   0.01267  Uiso   1.00
O790   O     0.74289   0.68437   0.57813   0.01267  Uiso   1.00
O791   O     0.54317   0.67620   0.63350   0.01267  Uiso   1.00
O792   O     0.64342   0.71933   0.59493   0.01267  Uiso   1.00
O793   O     0.53195   0.57813   0.73751   0.01267  Uiso   1.00
O794   O     0.60993   0.63350   0.69030   0.01267  Uiso   1.00
O795   O     0.69088   0.59493   0.68574   0.01267  Uiso   1.00
O796   O     0.59929   0.76249   0.81564   0.01267  Uiso   1.00
O797   O     0.54492   0.80970   0.82380   0.01267  Uiso   1.00
O798   O     0.71625   0.81426   0.78067   0.01267  Uiso   1.00
O799   O     0.50711   0.81563   0.92188   0.01267  Uiso   1.00
O800   O     0.70682   0.82380   0.86650   0.01267  Uiso   1.00
O801   O     0.60658   0.78067   0.90508   0.01267  Uiso   1.00
O802   O     0.71805   0.92188   0.76249   0.01267  Uiso   1.00
O803   O     0.64008   0.86650   0.80970   0.01267  Uiso   1.00
O804   O     0.55912   0.90507   0.81425   0.01267  Uiso   1.00
H805   H     0.66651   0.78065   0.72618   0.01267  Uiso   1.00
H806   H     0.52959   0.72617   0.99318   0.01267  Uiso   1.00
H807   H     0.52619   0.99318   0.78064   0.01267  Uiso   1.00
H808   H     0.58239   0.71510   0.77018   0.01267  Uiso   1.00
H809   H     0.71749   0.77019   0.51472   0.01267  Uiso   1.00
H810   H     0.72381   0.50682   0.71935   0.01267  Uiso   1.00
Mg811  Mg    0.84750   0.71012   0.65708   0.01267  Uiso   1.00
Mg812  Mg    0.92604   0.65708   0.63280   0.01267  Uiso   1.00
Mg813  Mg    0.99244   0.63280   0.71012   0.01267  Uiso   1.00
Mg814  Mg    0.90251   0.78988   0.84292   0.01267  Uiso   1.00
Mg815  Mg    0.82397   0.84292   0.86720   0.01267  Uiso   1.00
Mg816  Mg    0.75756   0.86720   0.78988   0.01267  Uiso   1.00
C817   C     0.94131   0.71901   0.69134   0.01267  Uiso   1.00
C818   C     0.97267   0.73114   0.72443   0.01267  Uiso   1.00
C819   C     0.95222   0.76788   0.73821   0.01267  Uiso   1.00
C820   C     0.76606   0.71897   0.73389   0.01267  Uiso   1.00
C821   C     0.78698   0.69134   0.58965   0.01267  Uiso   1.00
C822   C     0.83488   0.72443   0.54443   0.01267  Uiso   1.00
C823   C     0.82132   0.73821   0.99391   0.01267  Uiso   1.00
C824   C     0.88301   0.73389   0.54715   0.01267  Uiso   1.00
C825   C     0.83181   0.58965   0.71902   0.01267  Uiso   1.00
C826   C     0.85710   0.54443   0.73114   0.01267  Uiso   1.00
C827   C     0.81828   0.99391   0.76788   0.01267  Uiso   1.00
C828   C     0.90658   0.54714   0.71897   0.01267  Uiso   1.00
C829   C     0.80869   0.78098   0.80866   0.01267  Uiso   1.00
C830   C     0.77733   0.76886   0.77558   0.01267  Uiso   1.00
C831   C     0.79778   0.73212   0.76179   0.01267  Uiso   1.00
C832   C     0.98394   0.78104   0.76611   0.01267  Uiso   1.00
C833   C     0.96302   0.80866   0.91035   0.01267  Uiso   1.00
C834   C     0.91512   0.77557   0.95557   0.01267  Uiso   1.00
C835   C     0.92868   0.76179   0.50609   0.01267  Uiso   1.00
C836   C     0.86699   0.76611   0.95285   0.01267  Uiso   1.00
C837   C     0.91820   0.91036   0.78098   0.01267  Uiso   1.00
C838   C     0.89290   0.95557   0.76886   0.01267  Uiso   1.00
C839   C     0.93172   0.50609   0.73212   0.01267  Uiso   1.00
C840   C     0.84342   0.95285   0.78104   0.01267  Uiso   1.00
O841   O     0.90071   0.73751   0.68436   0.01267  Uiso   1.00
O842   O     0.95508   0.69030   0.67620   0.01267  Uiso   1.00
O843   O     0.78375   0.68574   0.71933   0.01267  Uiso   1.00
O844   O     0.99289   0.68437   0.57813   0.01267  Uiso   1.00
O845   O     0.79317   0.67620   0.63350   0.01267  Uiso   1.00
O846   O     0.89342   0.71933   0.59493   0.01267  Uiso   1.00
O847   O     0.78195   0.57813   0.73751   0.01267  Uiso   1.00
O848   O     0.85992   0.63350   0.69030   0.01267  Uiso   1.00
O849   O     0.94088   0.59492   0.68575   0.01267  Uiso   1.00
O850   O     0.84929   0.76249   0.81564   0.01267  Uiso   1.00
O851   O     0.79493   0.80970   0.82380   0.01267  Uiso   1.00
O852   O     0.96625   0.81426   0.78067   0.01267  Uiso   1.00
O853   O     0.75711   0.81563   0.92188   0.01267  Uiso   1.00
O854   O     0.95683   0.82380   0.86650   0.01267  Uiso   1.00
O855   O     0.85658   0.78067   0.90508   0.01267  Uiso   1.00
O856   O     0.96805   0.92187   0.76249   0.01267  Uiso   1.00
O857   O     0.89008   0.86650   0.80970   0.01267  Uiso   1.00
O858   O     0.80912   0.90507   0.81426   0.01267  Uiso   1.00
H859   H     0.91651   0.78065   0.72618   0.01267  Uiso   1.00
H860   H     0.77960   0.72617   0.99318   0.01267  Uiso   1.00
H861   H     0.77619   0.99318   0.78065   0.01267  Uiso   1.00
H862   H     0.83239   0.71510   0.77019   0.01267  Uiso   1.00
H863   H     0.96749   0.77019   0.51472   0.01267  Uiso   1.00
H864   H     0.97381   0.50682   0.71936   0.01267  Uiso   1.00
loop_
_geom_bond_atom_site_label_1
_geom_bond_atom_site_label_2
_geom_bond_distance
_geom_bond_site_symmetry_2
_ccdc_geom_bond_type
Mg1    Mg2     3.052   .     S
Mg1    Mg489   3.052   1_455 S
Mg1    O31     2.023   .     S
Mg1    O33     2.108   .     S
Mg1    O35     2.070   .     S
Mg1    O36     1.974   .     S
Mg1    O38     2.166   .     S
Mg2    Mg3     3.052   .     S
Mg2    O32     2.166   .     S
Mg2    O34     2.023   .     S
Mg2    O36     2.108   .     S
Mg2    O38     2.070   .     S
Mg2    O39     1.974   .     S
Mg3    Mg55    3.052   .     S
Mg3    O32     2.070   .     S
Mg3    O87     1.974   .     S
Mg3    O89     2.166   .     S
Mg3    O91     2.023   .     S
Mg3    O39     2.108   .     S
Mg4    Mg5     3.052   .     S
Mg4    Mg60    3.052   .     S
Mg4    O40     2.023   .     S
Mg4    O42     2.108   .     S
Mg4    O44     2.070   .     S
Mg4    O45     1.974   .     S
Mg4    O47     2.166   .     S
Mg5    Mg6     3.052   .     S
Mg5    O41     2.166   .     S
Mg5    O43     2.023   .     S
Mg5    O45     2.108   .     S
Mg5    O47     2.070   .     S
Mg5    O48     1.974   .     S
Mg6    Mg490   3.052   1_455 S
Mg6    O41     2.070   .     S
Mg6    O528    1.974   1_455 S
Mg6    O530    2.166   1_455 S
Mg6    O532    2.023   1_455 S
Mg6    O48     2.108   .     S
C7     C8      1.540   .     S
C7     O31     1.306   .     D
C7     O32     1.238   .     S
C8     C9      1.509   .     D
C8     C64     1.314   .     S
C9     C22     1.430   .     S
C9     H49     1.140   .     S
C10    C494    1.314   1_455 S
C10    C21     1.430   .     S
C10    O33     1.393   .     D
C11    C12     1.540   .     S
C11    O520    1.306   1_455 D
C11    O35     1.238   .     S
C12    C229    1.509   1_554 D
C12    C14     1.314   .     S
C13    C228    1.509   .     D
C13    C26     1.430   .     S
C13    H50     1.140   .     S
C14    C25     1.430   .     S
C14    O36     1.393   .     D
C15    C16     1.540   .     S
C15    O37     1.306   .     D
C15    O38     1.238   .     S
C16    C125    1.509   1_545 D
C16    C18     1.314   .     S
C17    C124    1.509   .     D
C17    C30     1.430   .     S
C17    H51     1.140   .     S
C18    C29     1.430   .     S
C18    O39     1.393   .     D
C19    C20     1.540   .     S
C19    O40     1.306   .     D
C19    O41     1.238   .     S
C20    C21     1.509   .     D
C20    C508    1.314   1_455 S
C21    H52     1.140   .     S
C22    C74     1.314   .     S
C22    O42     1.393   .     D
C23    C24     1.540   .     S
C23    O97     1.306   .     D
C23    O44     1.238   .     S
C24    C241    1.509   .     D
C24    C26     1.314   .     S
C25    C240    1.509   1_554 D
C25    H53     1.140   .     S
C26    O45     1.393   .     D
C27    C28     1.540   .     S
C27    O46     1.306   .     D
C27    O47     1.238   .     S
C28    C137    1.509   .     D
C28    C30     1.314   .     S
C29    C136    1.509   1_545 D
C29    H54     1.140   .     S
C30    O48     1.393   .     D
O33    Mg489   1.974   1_455 S
O34    C65     1.306   .     D
O35    Mg489   2.166   1_455 S
O37    Mg489   2.023   1_455 S
O42    Mg60    1.974   .     S
O43    C509    1.306   1_455 D
O44    Mg60    2.166   .     S
O46    Mg60    2.023   .     S
Mg55   Mg56    3.052   .     S
Mg55   O85     2.023   .     S
Mg55   O87     2.108   .     S
Mg55   O89     2.070   .     S
Mg55   O90     1.974   .     S
Mg55   O92     2.166   .     S
Mg56   Mg57    3.052   .     S
Mg56   O86     2.166   .     S
Mg56   O88     2.023   .     S
Mg56   O90     2.108   .     S
Mg56   O92     2.070   .     S
Mg56   O93     1.974   .     S
Mg57   Mg433   3.052   .     S
Mg57   O86     2.070   .     S
Mg57   O465    1.974   .     S
Mg57   O467    2.166   .     S
Mg57   O469    2.023   .     S
Mg57   O93     2.108   .     S
Mg58   Mg59    3.052   .     S
Mg58   Mg438   3.052   .     S
Mg58   O94     2.023   .     S
Mg58   O96     2.108   .     S
Mg58   O98     2.070   .     S
Mg58   O99     1.974   .     S
Mg58   O101    2.166   .     S
Mg59   Mg60    3.052   .     S
Mg59   O95     2.166   .     S
Mg59   O97     2.023   .     S
Mg59   O99     2.108   .     S
Mg59   O101    2.070   .     S
Mg59   O102    1.974   .     S
Mg60   O95     2.070   .     S
Mg60   O102    2.108   .     S
C61    C62     1.540   .     S
C61    O85     1.306   .     D
C61    O86     1.238   .     S
C62    C63     1.509   .     D
C62    C442    1.314   .     S
C63    C76     1.430   .     S
C63    H103    1.140   .     S
C64    C75     1.430   .     S
C64    O87     1.393   .     D
C65    C66     1.540   .     S
C65    O89     1.238   .     S
C66    C283    1.509   1_554 D
C66    C68     1.314   .     S
C67    C282    1.509   .     D
C67    C80     1.430   .     S
C67    H104    1.140   .     S
C68    C79     1.430   .     S
C68    O90     1.393   .     D
C69    C70     1.540   .     S
C69    O91     1.306   .     D
C69    O92     1.238   .     S
C70    C179    1.509   1_545 D
C70    C72     1.314   .     S
C71    C178    1.509   .     D
C71    C84     1.430   .     S
C71    H105    1.140   .     S
C72    C83     1.430   .     S
C72    O93     1.393   .     D
C73    C74     1.540   .     S
C73    O94     1.306   .     D
C73    O95     1.238   .     S
C74    C75     1.509   .     D
C75    H106    1.140   .     S
C76    C452    1.314   .     S
C76    O96     1.393   .     D
C77    C78     1.540   .     S
C77    O475    1.306   .     D
C77    O98     1.238   .     S
C78    C295    1.509   .     D
C78    C80     1.314   .     S
C79    C294    1.509   1_554 D
C79    H107    1.140   .     S
C80    O99     1.393   .     D
C81    C82     1.540   .     S
C81    O100    1.306   .     D
C81    O101    1.238   .     S
C82    C191    1.509   .     D
C82    C84     1.314   .     S
C83    C190    1.509   1_545 D
C83    H108    1.140   .     S
C84    O102    1.393   .     D
O88    C443    1.306   .     D
O96    Mg438   1.974   .     S
O98    Mg438   2.166   .     S
O100   Mg438   2.023   .     S
Mg109  Mg110   3.052   .     S
Mg109  Mg597   3.052   1_455 S
Mg109  O139    2.023   .     S
Mg109  O141    2.108   .     S
Mg109  O143    2.070   .     S
Mg109  O144    1.974   .     S
Mg109  O146    2.166   .     S
Mg110  Mg111   3.052   .     S
Mg110  O140    2.166   .     S
Mg110  O142    2.023   .     S
Mg110  O144    2.108   .     S
Mg110  O146    2.070   .     S
Mg110  O147    1.974   .     S
Mg111  Mg163   3.052   .     S
Mg111  O140    2.070   .     S
Mg111  O195    1.974   .     S
Mg111  O197    2.166   .     S
Mg111  O199    2.023   .     S
Mg111  O147    2.108   .     S
Mg112  Mg113   3.052   .     S
Mg112  Mg168   3.052   .     S
Mg112  O148    2.023   .     S
Mg112  O150    2.108   .     S
Mg112  O152    2.070   .     S
Mg112  O153    1.974   .     S
Mg112  O155    2.166   .     S
Mg113  Mg114   3.052   .     S
Mg113  O149    2.166   .     S
Mg113  O151    2.023   .     S
Mg113  O153    2.108   .     S
Mg113  O155    2.070   .     S
Mg113  O156    1.974   .     S
Mg114  Mg598   3.052   1_455 S
Mg114  O149    2.070   .     S
Mg114  O636    1.974   1_455 S
Mg114  O638    2.166   1_455 S
Mg114  O640    2.023   1_455 S
Mg114  O156    2.108   .     S
C115   C116    1.540   .     S
C115   O139    1.306   .     D
C115   O140    1.238   .     S
C116   C117    1.509   .     D
C116   C172    1.314   .     S
C117   C130    1.430   .     S
C117   H157    1.140   .     S
C118   C602    1.314   1_455 S
C118   C129    1.430   .     S
C118   O141    1.393   .     D
C119   C120    1.540   .     S
C119   O628    1.306   1_455 D
C119   O143    1.238   .     S
C120   C337    1.509   1_554 D
C120   C122    1.314   .     S
C121   C336    1.509   .     D
C121   C134    1.430   .     S
C121   H158    1.140   .     S
C122   C133    1.430   .     S
C122   O144    1.393   .     D
C123   C124    1.540   .     S
C123   O145    1.306   .     D
C123   O146    1.238   .     S
C124   C126    1.314   .     S
C125   C16     1.509   1_565 D
C125   C138    1.430   .     S
C125   H159    1.140   .     S
C126   C137    1.430   .     S
C126   O147    1.393   .     D
C127   C128    1.540   .     S
C127   O148    1.306   .     D
C127   O149    1.238   .     S
C128   C129    1.509   .     D
C128   C616    1.314   1_455 S
C129   H160    1.140   .     S
C130   C182    1.314   .     S
C130   O150    1.393   .     D
C131   C132    1.540   .     S
C131   O205    1.306   .     D
C131   O152    1.238   .     S
C132   C349    1.509   .     D
C132   C134    1.314   .     S
C133   C348    1.509   1_554 D
C133   H161    1.140   .     S
C134   O153    1.393   .     D
C135   C136    1.540   .     S
C135   O154    1.306   .     D
C135   O155    1.238   .     S
C136   C29     1.509   1_565 D
C136   C138    1.314   .     S
C137   H162    1.140   .     S
C138   O156    1.393   .     D
O141   Mg597   1.974   1_455 S
O142   C173    1.306   .     D
O143   Mg597   2.166   1_455 S
O145   Mg597   2.023   1_455 S
O150   Mg168   1.974   .     S
O151   C617    1.306   1_455 D
O152   Mg168   2.166   .     S
O154   Mg168   2.023   .     S
Mg163  Mg164   3.052   .     S
Mg163  O193    2.023   .     S
Mg163  O195    2.108   .     S
Mg163  O197    2.070   .     S
Mg163  O198    1.974   .     S
Mg163  O200    2.166   .     S
Mg164  Mg165   3.052   .     S
Mg164  O194    2.166   .     S
Mg164  O196    2.023   .     S
Mg164  O198    2.108   .     S
Mg164  O200    2.070   .     S
Mg164  O201    1.974   .     S
Mg165  Mg541   3.052   .     S
Mg165  O194    2.070   .     S
Mg165  O573    1.974   .     S
Mg165  O575    2.166   .     S
Mg165  O577    2.023   .     S
Mg165  O201    2.108   .     S
Mg166  Mg167   3.052   .     S
Mg166  Mg546   3.052   .     S
Mg166  O202    2.023   .     S
Mg166  O204    2.108   .     S
Mg166  O206    2.070   .     S
Mg166  O207    1.974   .     S
Mg166  O209    2.166   .     S
Mg167  Mg168   3.052   .     S
Mg167  O203    2.166   .     S
Mg167  O205    2.023   .     S
Mg167  O207    2.108   .     S
Mg167  O209    2.070   .     S
Mg167  O210    1.974   .     S
Mg168  O203    2.070   .     S
Mg168  O210    2.108   .     S
C169   C170    1.540   .     S
C169   O193    1.306   .     D
C169   O194    1.238   .     S
C170   C171    1.509   .     D
C170   C550    1.314   .     S
C171   C184    1.430   .     S
C171   H211    1.140   .     S
C172   C183    1.430   .     S
C172   O195    1.393   .     D
C173   C174    1.540   .     S
C173   O197    1.238   .     S
C174   C391    1.509   1_554 D
C174   C176    1.314   .     S
C175   C390    1.509   .     D
C175   C188    1.430   .     S
C175   H212    1.140   .     S
C176   C187    1.430   .     S
C176   O198    1.393   .     D
C177   C178    1.540   .     S
C177   O199    1.306   .     D
C177   O200    1.238   .     S
C178   C180    1.314   .     S
C179   C70     1.509   1_565 D
C179   C192    1.430   .     S
C179   H213    1.140   .     S
C180   C191    1.430   .     S
C180   O201    1.393   .     D
C181   C182    1.540   .     S
C181   O202    1.306   .     D
C181   O203    1.238   .     S
C182   C183    1.509   .     D
C183   H214    1.140   .     S
C184   C560    1.314   .     S
C184   O204    1.393   .     D
C185   C186    1.540   .     S
C185   O583    1.306   .     D
C185   O206    1.238   .     S
C186   C403    1.509   .     D
C186   C188    1.314   .     S
C187   C402    1.509   1_554 D
C187   H215    1.140   .     S
C188   O207    1.393   .     D
C189   C190    1.540   .     S
C189   O208    1.306   .     D
C189   O209    1.238   .     S
C190   C83     1.509   1_565 D
C190   C192    1.314   .     S
C191   H216    1.140   .     S
C192   O210    1.393   .     D
O196   C551    1.306   .     D
O204   Mg546   1.974   .     S
O206   Mg546   2.166   .     S
O208   Mg546   2.023   .     S
Mg217  Mg218   3.052   .     S
Mg217  Mg705   3.052   1_455 S
Mg217  O247    2.023   .     S
Mg217  O249    2.108   .     S
Mg217  O251    2.070   .     S
Mg217  O252    1.974   .     S
Mg217  O254    2.166   .     S
Mg218  Mg219   3.052   .     S
Mg218  O248    2.166   .     S
Mg218  O250    2.023   .     S
Mg218  O252    2.108   .     S
Mg218  O254    2.070   .     S
Mg218  O255    1.974   .     S
Mg219  Mg271   3.052   .     S
Mg219  O248    2.070   .     S
Mg219  O303    1.974   .     S
Mg219  O305    2.166   .     S
Mg219  O307    2.023   .     S
Mg219  O255    2.108   .     S
Mg220  Mg221   3.052   .     S
Mg220  Mg276   3.052   .     S
Mg220  O256    2.023   .     S
Mg220  O258    2.108   .     S
Mg220  O260    2.070   .     S
Mg220  O261    1.974   .     S
Mg220  O263    2.166   .     S
Mg221  Mg222   3.052   .     S
Mg221  O257    2.166   .     S
Mg221  O259    2.023   .     S
Mg221  O261    2.108   .     S
Mg221  O263    2.070   .     S
Mg221  O264    1.974   .     S
Mg222  Mg706   3.052   1_455 S
Mg222  O257    2.070   .     S
Mg222  O744    1.974   1_455 S
Mg222  O746    2.166   1_455 S
Mg222  O748    2.023   1_455 S
Mg222  O264    2.108   .     S
C223   C224    1.540   .     S
C223   O247    1.306   .     D
C223   O248    1.238   .     S
C224   C225    1.509   .     D
C224   C280    1.314   .     S
C225   C238    1.430   .     S
C225   H265    1.140   .     S
C226   C710    1.314   1_455 S
C226   C237    1.430   .     S
C226   O249    1.393   .     D
C227   C228    1.540   .     S
C227   O736    1.306   1_455 D
C227   O251    1.238   .     S
C228   C230    1.314   .     S
C229   C12     1.509   1_556 D
C229   C242    1.430   .     S
C229   H266    1.140   .     S
C230   C241    1.430   .     S
C230   O252    1.393   .     D
C231   C232    1.540   .     S
C231   O253    1.306   .     D
C231   O254    1.238   .     S
C232   C341    1.509   1_545 D
C232   C234    1.314   .     S
C233   C340    1.509   .     D
C233   C246    1.430   .     S
C233   H267    1.140   .     S
C234   C245    1.430   .     S
C234   O255    1.393   .     D
C235   C236    1.540   .     S
C235   O256    1.306   .     D
C235   O257    1.238   .     S
C236   C237    1.509   .     D
C236   C724    1.314   1_455 S
C237   H268    1.140   .     S
C238   C290    1.314   .     S
C238   O258    1.393   .     D
C239   C240    1.540   .     S
C239   O313    1.306   .     D
C239   O260    1.238   .     S
C240   C25     1.509   1_556 D
C240   C242    1.314   .     S
C241   H269    1.140   .     S
C242   O261    1.393   .     D
C243   C244    1.540   .     S
C243   O262    1.306   .     D
C243   O263    1.238   .     S
C244   C353    1.509   .     D
C244   C246    1.314   .     S
C245   C352    1.509   1_545 D
C245   H270    1.140   .     S
C246   O264    1.393   .     D
O249   Mg705   1.974   1_455 S
O250   C281    1.306   .     D
O251   Mg705   2.166   1_455 S
O253   Mg705   2.023   1_455 S
O258   Mg276   1.974   .     S
O259   C725    1.306   1_455 D
O260   Mg276   2.166   .     S
O262   Mg276   2.023   .     S
Mg271  Mg272   3.052   .     S
Mg271  O301    2.023   .     S
Mg271  O303    2.108   .     S
Mg271  O305    2.070   .     S
Mg271  O306    1.974   .     S
Mg271  O308    2.166   .     S
Mg272  Mg273   3.052   .     S
Mg272  O302    2.166   .     S
Mg272  O304    2.023   .     S
Mg272  O306    2.108   .     S
Mg272  O308    2.070   .     S
Mg272  O309    1.974   .     S
Mg273  Mg649   3.052   .     S
Mg273  O302    2.070   .     S
Mg273  O681    1.974   .     S
Mg273  O683    2.166   .     S
Mg273  O685    2.023   .     S
Mg273  O309    2.108   .     S
Mg274  Mg275   3.052   .     S
Mg274  Mg654   3.052   .     S
Mg274  O310    2.023   .     S
Mg274  O312    2.108   .     S
Mg274  O314    2.070   .     S
Mg274  O315    1.974   .     S
Mg274  O317    2.166   .     S
Mg275  Mg276   3.052   .     S
Mg275  O311    2.166   .     S
Mg275  O313    2.023   .     S
Mg275  O315    2.108   .     S
Mg275  O317    2.070   .     S
Mg275  O318    1.974   .     S
Mg276  O311    2.070   .     S
Mg276  O318    2.108   .     S
C277   C278    1.540   .     S
C277   O301    1.306   .     D
C277   O302    1.238   .     S
C278   C279    1.509   .     D
C278   C658    1.314   .     S
C279   C292    1.430   .     S
C279   H319    1.140   .     S
C280   C291    1.430   .     S
C280   O303    1.393   .     D
C281   C282    1.540   .     S
C281   O305    1.238   .     S
C282   C284    1.314   .     S
C283   C66     1.509   1_556 D
C283   C296    1.430   .     S
C283   H320    1.140   .     S
C284   C295    1.430   .     S
C284   O306    1.393   .     D
C285   C286    1.540   .     S
C285   O307    1.306   .     D
C285   O308    1.238   .     S
C286   C395    1.509   1_545 D
C286   C288    1.314   .     S
C287   C394    1.509   .     D
C287   C300    1.430   .     S
C287   H321    1.140   .     S
C288   C299    1.430   .     S
C288   O309    1.393   .     D
C289   C290    1.540   .     S
C289   O310    1.306   .     D
C289   O311    1.238   .     S
C290   C291    1.509   .     D
C291   H322    1.140   .     S
C292   C668    1.314   .     S
C292   O312    1.393   .     D
C293   C294    1.540   .     S
C293   O691    1.306   .     D
C293   O314    1.238   .     S
C294   C79     1.509   1_556 D
C294   C296    1.314   .     S
C295   H323    1.140   .     S
C296   O315    1.393   .     D
C297   C298    1.540   .     S
C297   O316    1.306   .     D
C297   O317    1.238   .     S
C298   C407    1.509   .     D
C298   C300    1.314   .     S
C299   C406    1.509   1_545 D
C299   H324    1.140   .     S
C300   O318    1.393   .     D
O304   C659    1.306   .     D
O312   Mg654   1.974   .     S
O314   Mg654   2.166   .     S
O316   Mg654   2.023   .     S
Mg325  Mg326   3.052   .     S
Mg325  Mg813   3.052   1_455 S
Mg325  O355    2.023   .     S
Mg325  O357    2.108   .     S
Mg325  O359    2.070   .     S
Mg325  O360    1.974   .     S
Mg325  O362    2.166   .     S
Mg326  Mg327   3.052   .     S
Mg326  O356    2.166   .     S
Mg326  O358    2.023   .     S
Mg326  O360    2.108   .     S
Mg326  O362    2.070   .     S
Mg326  O363    1.974   .     S
Mg327  Mg379   3.052   .     S
Mg327  O356    2.070   .     S
Mg327  O411    1.974   .     S
Mg327  O413    2.166   .     S
Mg327  O415    2.023   .     S
Mg327  O363    2.108   .     S
Mg328  Mg329   3.052   .     S
Mg328  Mg384   3.052   .     S
Mg328  O364    2.023   .     S
Mg328  O366    2.108   .     S
Mg328  O368    2.070   .     S
Mg328  O369    1.974   .     S
Mg328  O371    2.166   .     S
Mg329  Mg330   3.052   .     S
Mg329  O365    2.166   .     S
Mg329  O367    2.023   .     S
Mg329  O369    2.108   .     S
Mg329  O371    2.070   .     S
Mg329  O372    1.974   .     S
Mg330  Mg814   3.052   1_455 S
Mg330  O365    2.070   .     S
Mg330  O852    1.974   1_455 S
Mg330  O854    2.166   1_455 S
Mg330  O856    2.023   1_455 S
Mg330  O372    2.108   .     S
C331   C332    1.540   .     S
C331   O355    1.306   .     D
C331   O356    1.238   .     S
C332   C333    1.509   .     D
C332   C388    1.314   .     S
C333   C346    1.430   .     S
C333   H373    1.140   .     S
C334   C818    1.314   1_455 S
C334   C345    1.430   .     S
C334   O357    1.393   .     D
C335   C336    1.540   .     S
C335   O844    1.306   1_455 D
C335   O359    1.238   .     S
C336   C338    1.314   .     S
C337   C120    1.509   1_556 D
C337   C350    1.430   .     S
C337   H374    1.140   .     S
C338   C349    1.430   .     S
C338   O360    1.393   .     D
C339   C340    1.540   .     S
C339   O361    1.306   .     D
C339   O362    1.238   .     S
C340   C342    1.314   .     S
C341   C232    1.509   1_565 D
C341   C354    1.430   .     S
C341   H375    1.140   .     S
C342   C353    1.430   .     S
C342   O363    1.393   .     D
C343   C344    1.540   .     S
C343   O364    1.306   .     D
C343   O365    1.238   .     S
C344   C345    1.509   .     D
C344   C832    1.314   1_455 S
C345   H376    1.140   .     S
C346   C398    1.314   .     S
C346   O366    1.393   .     D
C347   C348    1.540   .     S
C347   O421    1.306   .     D
C347   O368    1.238   .     S
C348   C133    1.509   1_556 D
C348   C350    1.314   .     S
C349   H377    1.140   .     S
C350   O369    1.393   .     D
C351   C352    1.540   .     S
C351   O370    1.306   .     D
C351   O371    1.238   .     S
C352   C245    1.509   1_565 D
C352   C354    1.314   .     S
C353   H378    1.140   .     S
C354   O372    1.393   .     D
O357   Mg813   1.974   1_455 S
O358   C389    1.306   .     D
O359   Mg813   2.166   1_455 S
O361   Mg813   2.023   1_455 S
O366   Mg384   1.974   .     S
O367   C833    1.306   1_455 D
O368   Mg384   2.166   .     S
O370   Mg384   2.023   .     S
Mg379  Mg380   3.052   .     S
Mg379  O409    2.023   .     S
Mg379  O411    2.108   .     S
Mg379  O413    2.070   .     S
Mg379  O414    1.974   .     S
Mg379  O416    2.166   .     S
Mg380  Mg381   3.052   .     S
Mg380  O410    2.166   .     S
Mg380  O412    2.023   .     S
Mg380  O414    2.108   .     S
Mg380  O416    2.070   .     S
Mg380  O417    1.974   .     S
Mg381  Mg757   3.052   .     S
Mg381  O410    2.070   .     S
Mg381  O789    1.974   .     S
Mg381  O791    2.166   .     S
Mg381  O793    2.023   .     S
Mg381  O417    2.108   .     S
Mg382  Mg383   3.052   .     S
Mg382  Mg762   3.052   .     S
Mg382  O418    2.023   .     S
Mg382  O420    2.108   .     S
Mg382  O422    2.070   .     S
Mg382  O423    1.974   .     S
Mg382  O425    2.166   .     S
Mg383  Mg384   3.052   .     S
Mg383  O419    2.166   .     S
Mg383  O421    2.023   .     S
Mg383  O423    2.108   .     S
Mg383  O425    2.070   .     S
Mg383  O426    1.974   .     S
Mg384  O419    2.070   .     S
Mg384  O426    2.108   .     S
C385   C386    1.540   .     S
C385   O409    1.306   .     D
C385   O410    1.238   .     S
C386   C387    1.509   .     D
C386   C766    1.314   .     S
C387   C400    1.430   .     S
C387   H427    1.140   .     S
C388   C399    1.430   .     S
C388   O411    1.393   .     D
C389   C390    1.540   .     S
C389   O413    1.238   .     S
C390   C392    1.314   .     S
C391   C174    1.509   1_556 D
C391   C404    1.430   .     S
C391   H428    1.140   .     S
C392   C403    1.430   .     S
C392   O414    1.393   .     D
C393   C394    1.540   .     S
C393   O415    1.306   .     D
C393   O416    1.238   .     S
C394   C396    1.314   .     S
C395   C286    1.509   1_565 D
C395   C408    1.430   .     S
C395   H429    1.140   .     S
C396   C407    1.430   .     S
C396   O417    1.393   .     D
C397   C398    1.540   .     S
C397   O418    1.306   .     D
C397   O419    1.238   .     S
C398   C399    1.509   .     D
C399   H430    1.140   .     S
C400   C776    1.314   .     S
C400   O420    1.393   .     D
C401   C402    1.540   .     S
C401   O799    1.306   .     D
C401   O422    1.238   .     S
C402   C187    1.509   1_556 D
C402   C404    1.314   .     S
C403   H431    1.140   .     S
C404   O423    1.393   .     D
C405   C406    1.540   .     S
C405   O424    1.306   .     D
C405   O425    1.238   .     S
C406   C299    1.509   1_565 D
C406   C408    1.314   .     S
C407   H432    1.140   .     S
C408   O426    1.393   .     D
O412   C767    1.306   .     D
O420   Mg762   1.974   .     S
O422   Mg762   2.166   .     S
O424   Mg762   2.023   .     S
Mg433  Mg434   3.052   .     S
Mg433  O463    2.023   .     S
Mg433  O465    2.108   .     S
Mg433  O467    2.070   .     S
Mg433  O468    1.974   .     S
Mg433  O470    2.166   .     S
Mg434  Mg435   3.052   .     S
Mg434  O464    2.166   .     S
Mg434  O466    2.023   .     S
Mg434  O468    2.108   .     S
Mg434  O470    2.070   .     S
Mg434  O471    1.974   .     S
Mg435  Mg487   3.052   .     S
Mg435  O464    2.070   .     S
Mg435  O519    1.974   .     S
Mg435  O521    2.166   .     S
Mg435  O523    2.023   .     S
Mg435  O471    2.108   .     S
Mg436  Mg437   3.052   .     S
Mg436  Mg492   3.052   .     S
Mg436  O472    2.023   .     S
Mg436  O474    2.108   .     S
Mg436  O476    2.070   .     S
Mg436  O477    1.974   .     S
Mg436  O479    2.166   .     S
Mg437  Mg438   3.052   .     S
Mg437  O473    2.166   .     S
Mg437  O475    2.023   .     S
Mg437  O477    2.108   .     S
Mg437  O479    2.070   .     S
Mg437  O480    1.974   .     S
Mg438  O473    2.070   .     S
Mg438  O480    2.108   .     S
C439   C440    1.540   .     S
C439   O463    1.306   .     D
C439   O464    1.238   .     S
C440   C441    1.509   .     D
C440   C496    1.314   .     S
C441   C454    1.430   .     S
C441   H481    1.140   .     S
C442   C453    1.430   .     S
C442   O465    1.393   .     D
C443   C444    1.540   .     S
C443   O467    1.238   .     S
C444   C661    1.509   1_554 D
C444   C446    1.314   .     S
C445   C660    1.509   .     D
C445   C458    1.430   .     S
C445   H482    1.140   .     S
C446   C457    1.430   .     S
C446   O468    1.393   .     D
C447   C448    1.540   .     S
C447   O469    1.306   .     D
C447   O470    1.238   .     S
C448   C557    1.509   1_545 D
C448   C450    1.314   .     S
C449   C556    1.509   .     D
C449   C462    1.430   .     S
C449   H483    1.140   .     S
C450   C461    1.430   .     S
C450   O471    1.393   .     D
C451   C452    1.540   .     S
C451   O472    1.306   .     D
C451   O473    1.238   .     S
C452   C453    1.509   .     D
C453   H484    1.140   .     S
C454   C506    1.314   .     S
C454   O474    1.393   .     D
C455   C456    1.540   .     S
C455   O529    1.306   .     D
C455   O476    1.238   .     S
C456   C673    1.509   .     D
C456   C458    1.314   .     S
C457   C672    1.509   1_554 D
C457   H485    1.140   .     S
C458   O477    1.393   .     D
C459   C460    1.540   .     S
C459   O478    1.306   .     D
C459   O479    1.238   .     S
C460   C569    1.509   .     D
C460   C462    1.314   .     S
C461   C568    1.509   1_545 D
C461   H486    1.140   .     S
C462   O480    1.393   .     D
O466   C497    1.306   .     D
O474   Mg492   1.974   .     S
O476   Mg492   2.166   .     S
O478   Mg492   2.023   .     S
Mg487  Mg488   3.052   .     S
Mg487  O517    2.023   .     S
Mg487  O519    2.108   .     S
Mg487  O521    2.070   .     S
Mg487  O522    1.974   .     S
Mg487  O524    2.166   .     S
Mg488  Mg489   3.052   .     S
Mg488  O518    2.166   .     S
Mg488  O520    2.023   .     S
Mg488  O522    2.108   .     S
Mg488  O524    2.070   .     S
Mg488  O525    1.974   .     S
Mg489  Mg1     3.052   1_655 S
Mg489  O518    2.070   .     S
Mg489  O33     1.974   1_655 S
Mg489  O35     2.166   1_655 S
Mg489  O37     2.023   1_655 S
Mg489  O525    2.108   .     S
Mg490  Mg491   3.052   .     S
Mg490  Mg6     3.052   1_655 S
Mg490  O526    2.023   .     S
Mg490  O528    2.108   .     S
Mg490  O530    2.070   .     S
Mg490  O531    1.974   .     S
Mg490  O533    2.166   .     S
Mg491  Mg492   3.052   .     S
Mg491  O527    2.166   .     S
Mg491  O529    2.023   .     S
Mg491  O531    2.108   .     S
Mg491  O533    2.070   .     S
Mg491  O534    1.974   .     S
Mg492  O527    2.070   .     S
Mg492  O534    2.108   .     S
C493   C494    1.540   .     S
C493   O517    1.306   .     D
C493   O518    1.238   .     S
C494   C495    1.509   .     D
C494   C10     1.314   1_655 S
C495   C508    1.430   .     S
C495   H535    1.140   .     S
C496   C507    1.430   .     S
C496   O519    1.393   .     D
C497   C498    1.540   .     S
C497   O521    1.238   .     S
C498   C715    1.509   1_554 D
C498   C500    1.314   .     S
C499   C714    1.509   .     D
C499   C512    1.430   .     S
C499   H536    1.140   .     S
C500   C511    1.430   .     S
C500   O522    1.393   .     D
C501   C502    1.540   .     S
C501   O523    1.306   .     D
C501   O524    1.238   .     S
C502   C611    1.509   1_545 D
C502   C504    1.314   .     S
C503   C610    1.509   .     D
C503   C516    1.430   .     S
C503   H537    1.140   .     S
C504   C515    1.430   .     S
C504   O525    1.393   .     D
C505   C506    1.540   .     S
C505   O526    1.306   .     D
C505   O527    1.238   .     S
C506   C507    1.509   .     D
C507   H538    1.140   .     S
C508   C20     1.314   1_655 S
C508   O528    1.393   .     D
C509   C510    1.540   .     S
C509   O43     1.306   1_655 D
C509   O530    1.238   .     S
C510   C727    1.509   .     D
C510   C512    1.314   .     S
C511   C726    1.509   1_554 D
C511   H539    1.140   .     S
C512   O531    1.393   .     D
C513   C514    1.540   .     S
C513   O532    1.306   .     D
C513   O533    1.238   .     S
C514   C623    1.509   .     D
C514   C516    1.314   .     S
C515   C622    1.509   1_545 D
C515   H540    1.140   .     S
C516   O534    1.393   .     D
O520   C11     1.306   1_655 D
O528   Mg6     1.974   1_655 S
O530   Mg6     2.166   1_655 S
O532   Mg6     2.023   1_655 S
Mg541  Mg542   3.052   .     S
Mg541  O571    2.023   .     S
Mg541  O573    2.108   .     S
Mg541  O575    2.070   .     S
Mg541  O576    1.974   .     S
Mg541  O578    2.166   .     S
Mg542  Mg543   3.052   .     S
Mg542  O572    2.166   .     S
Mg542  O574    2.023   .     S
Mg542  O576    2.108   .     S
Mg542  O578    2.070   .     S
Mg542  O579    1.974   .     S
Mg543  Mg595   3.052   .     S
Mg543  O572    2.070   .     S
Mg543  O627    1.974   .     S
Mg543  O629    2.166   .     S
Mg543  O631    2.023   .     S
Mg543  O579    2.108   .     S
Mg544  Mg545   3.052   .     S
Mg544  Mg600   3.052   .     S
Mg544  O580    2.023   .     S
Mg544  O582    2.108   .     S
Mg544  O584    2.070   .     S
Mg544  O585    1.974   .     S
Mg544  O587    2.166   .     S
Mg545  Mg546   3.052   .     S
Mg545  O581    2.166   .     S
Mg545  O583    2.023   .     S
Mg545  O585    2.108   .     S
Mg545  O587    2.070   .     S
Mg545  O588    1.974   .     S
Mg546  O581    2.070   .     S
Mg546  O588    2.108   .     S
C547   C548    1.540   .     S
C547   O571    1.306   .     D
C547   O572    1.238   .     S
C548   C549    1.509   .     D
C548   C604    1.314   .     S
C549   C562    1.430   .     S
C549   H589    1.140   .     S
C550   C561    1.430   .     S
C550   O573    1.393   .     D
C551   C552    1.540   .     S
C551   O575    1.238   .     S
C552   C769    1.509   1_554 D
C552   C554    1.314   .     S
C553   C768    1.509   .     D
C553   C566    1.430   .     S
C553   H590    1.140   .     S
C554   C565    1.430   .     S
C554   O576    1.393   .     D
C555   C556    1.540   .     S
C555   O577    1.306   .     D
C555   O578    1.238   .     S
C556   C558    1.314   .     S
C557   C448    1.509   1_565 D
C557   C570    1.430   .     S
C557   H591    1.140   .     S
C558   C569    1.430   .     S
C558   O579    1.393   .     D
C559   C560    1.540   .     S
C559   O580    1.306   .     D
C559   O581    1.238   .     S
C560   C561    1.509   .     D
C561   H592    1.140   .     S
C562   C614    1.314   .     S
C562   O582    1.393   .     D
C563   C564    1.540   .     S
C563   O637    1.306   .     D
C563   O584    1.238   .     S
C564   C781    1.509   .     D
C564   C566    1.314   .     S
C565   C780    1.509   1_554 D
C565   H593    1.140   .     S
C566   O585    1.393   .     D
C567   C568    1.540   .     S
C567   O586    1.306   .     D
C567   O587    1.238   .     S
C568   C461    1.509   1_565 D
C568   C570    1.314   .     S
C569   H594    1.140   .     S
C570   O588    1.393   .     D
O574   C605    1.306   .     D
O582   Mg600   1.974   .     S
O584   Mg600   2.166   .     S
O586   Mg600   2.023   .     S
Mg595  Mg596   3.052   .     S
Mg595  O625    2.023   .     S
Mg595  O627    2.108   .     S
Mg595  O629    2.070   .     S
Mg595  O630    1.974   .     S
Mg595  O632    2.166   .     S
Mg596  Mg597   3.052   .     S
Mg596  O626    2.166   .     S
Mg596  O628    2.023   .     S
Mg596  O630    2.108   .     S
Mg596  O632    2.070   .     S
Mg596  O633    1.974   .     S
Mg597  Mg109   3.052   1_655 S
Mg597  O626    2.070   .     S
Mg597  O141    1.974   1_655 S
Mg597  O143    2.166   1_655 S
Mg597  O145    2.023   1_655 S
Mg597  O633    2.108   .     S
Mg598  Mg599   3.052   .     S
Mg598  Mg114   3.052   1_655 S
Mg598  O634    2.023   .     S
Mg598  O636    2.108   .     S
Mg598  O638    2.070   .     S
Mg598  O639    1.974   .     S
Mg598  O641    2.166   .     S
Mg599  Mg600   3.052   .     S
Mg599  O635    2.166   .     S
Mg599  O637    2.023   .     S
Mg599  O639    2.108   .     S
Mg599  O641    2.070   .     S
Mg599  O642    1.974   .     S
Mg600  O635    2.070   .     S
Mg600  O642    2.108   .     S
C601   C602    1.540   .     S
C601   O625    1.306   .     D
C601   O626    1.238   .     S
C602   C603    1.509   .     D
C602   C118    1.314   1_655 S
C603   C616    1.430   .     S
C603   H643    1.140   .     S
C604   C615    1.430   .     S
C604   O627    1.393   .     D
C605   C606    1.540   .     S
C605   O629    1.238   .     S
C606   C823    1.509   1_554 D
C606   C608    1.314   .     S
C607   C822    1.509   .     D
C607   C620    1.430   .     S
C607   H644    1.140   .     S
C608   C619    1.430   .     S
C608   O630    1.393   .     D
C609   C610    1.540   .     S
C609   O631    1.306   .     D
C609   O632    1.238   .     S
C610   C612    1.314   .     S
C611   C502    1.509   1_565 D
C611   C624    1.430   .     S
C611   H645    1.140   .     S
C612   C623    1.430   .     S
C612   O633    1.393   .     D
C613   C614    1.540   .     S
C613   O634    1.306   .     D
C613   O635    1.238   .     S
C614   C615    1.509   .     D
C615   H646    1.140   .     S
C616   C128    1.314   1_655 S
C616   O636    1.393   .     D
C617   C618    1.540   .     S
C617   O151    1.306   1_655 D
C617   O638    1.238   .     S
C618   C835    1.509   .     D
C618   C620    1.314   .     S
C619   C834    1.509   1_554 D
C619   H647    1.140   .     S
C620   O639    1.393   .     D
C621   C622    1.540   .     S
C621   O640    1.306   .     D
C621   O641    1.238   .     S
C622   C515    1.509   1_565 D
C622   C624    1.314   .     S
C623   H648    1.140   .     S
C624   O642    1.393   .     D
O628   C119    1.306   1_655 D
O636   Mg114   1.974   1_655 S
O638   Mg114   2.166   1_655 S
O640   Mg114   2.023   1_655 S
Mg649  Mg650   3.052   .     S
Mg649  O679    2.023   .     S
Mg649  O681    2.108   .     S
Mg649  O683    2.070   .     S
Mg649  O684    1.974   .     S
Mg649  O686    2.166   .     S
Mg650  Mg651   3.052   .     S
Mg650  O680    2.166   .     S
Mg650  O682    2.023   .     S
Mg650  O684    2.108   .     S
Mg650  O686    2.070   .     S
Mg650  O687    1.974   .     S
Mg651  Mg703   3.052   .     S
Mg651  O680    2.070   .     S
Mg651  O735    1.974   .     S
Mg651  O737    2.166   .     S
Mg651  O739    2.023   .     S
Mg651  O687    2.108   .     S
Mg652  Mg653   3.052   .     S
Mg652  Mg708   3.052   .     S
Mg652  O688    2.023   .     S
Mg652  O690    2.108   .     S
Mg652  O692    2.070   .     S
Mg652  O693    1.974   .     S
Mg652  O695    2.166   .     S
Mg653  Mg654   3.052   .     S
Mg653  O689    2.166   .     S
Mg653  O691    2.023   .     S
Mg653  O693    2.108   .     S
Mg653  O695    2.070   .     S
Mg653  O696    1.974   .     S
Mg654  O689    2.070   .     S
Mg654  O696    2.108   .     S
C655   C656    1.540   .     S
C655   O679    1.306   .     D
C655   O680    1.238   .     S
C656   C657    1.509   .     D
C656   C712    1.314   .     S
C657   C670    1.430   .     S
C657   H697    1.140   .     S
C658   C669    1.430   .     S
C658   O681    1.393   .     D
C659   C660    1.540   .     S
C659   O683    1.238   .     S
C660   C662    1.314   .     S
C661   C444    1.509   1_556 D
C661   C674    1.430   .     S
C661   H698    1.140   .     S
C662   C673    1.430   .     S
C662   O684    1.393   .     D
C663   C664    1.540   .     S
C663   O685    1.306   .     D
C663   O686    1.238   .     S
C664   C773    1.509   1_545 D
C664   C666    1.314   .     S
C665   C772    1.509   .     D
C665   C678    1.430   .     S
C665   H699    1.140   .     S
C666   C677    1.430   .     S
C666   O687    1.393   .     D
C667   C668    1.540   .     S
C667   O688    1.306   .     D
C667   O689    1.238   .     S
C668   C669    1.509   .     D
C669   H700    1.140   .     S
C670   C722    1.314   .     S
C670   O690    1.393   .     D
C671   C672    1.540   .     S
C671   O745    1.306   .     D
C671   O692    1.238   .     S
C672   C457    1.509   1_556 D
C672   C674    1.314   .     S
C673   H701    1.140   .     S
C674   O693    1.393   .     D
C675   C676    1.540   .     S
C675   O694    1.306   .     D
C675   O695    1.238   .     S
C676   C785    1.509   .     D
C676   C678    1.314   .     S
C677   C784    1.509   1_545 D
C677   H702    1.140   .     S
C678   O696    1.393   .     D
O682   C713    1.306   .     D
O690   Mg708   1.974   .     S
O692   Mg708   2.166   .     S
O694   Mg708   2.023   .     S
Mg703  Mg704   3.052   .     S
Mg703  O733    2.023   .     S
Mg703  O735    2.108   .     S
Mg703  O737    2.070   .     S
Mg703  O738    1.974   .     S
Mg703  O740    2.166   .     S
Mg704  Mg705   3.052   .     S
Mg704  O734    2.166   .     S
Mg704  O736    2.023   .     S
Mg704  O738    2.108   .     S
Mg704  O740    2.070   .     S
Mg704  O741    1.974   .     S
Mg705  Mg217   3.052   1_655 S
Mg705  O734    2.070   .     S
Mg705  O249    1.974   1_655 S
Mg705  O251    2.166   1_655 S
Mg705  O253    2.023   1_655 S
Mg705  O741    2.108   .     S
Mg706  Mg707   3.052   .     S
Mg706  Mg222   3.052   1_655 S
Mg706  O742    2.023   .     S
Mg706  O744    2.108   .     S
Mg706  O746    2.070   .     S
Mg706  O747    1.974   .     S
Mg706  O749    2.166   .     S
Mg707  Mg708   3.052   .     S
Mg707  O743    2.166   .     S
Mg707  O745    2.023   .     S
Mg707  O747    2.108   .     S
Mg707  O749    2.070   .     S
Mg707  O750    1.974   .     S
Mg708  O743    2.070   .     S
Mg708  O750    2.108   .     S
C709   C710    1.540   .     S
C709   O733    1.306   .     D
C709   O734    1.238   .     S
C710   C711    1.509   .     D
C710   C226    1.314   1_655 S
C711   C724    1.430   .     S
C711   H751    1.140   .     S
C712   C723    1.430   .     S
C712   O735    1.393   .     D
C713   C714    1.540   .     S
C713   O737    1.238   .     S
C714   C716    1.314   .     S
C715   C498    1.509   1_556 D
C715   C728    1.430   .     S
C715   H752    1.140   .     S
C716   C727    1.430   .     S
C716   O738    1.393   .     D
C717   C718    1.540   .     S
C717   O739    1.306   .     D
C717   O740    1.238   .     S
C718   C827    1.509   1_545 D
C718   C720    1.314   .     S
C719   C826    1.509   .     D
C719   C732    1.430   .     S
C719   H753    1.140   .     S
C720   C731    1.430   .     S
C720   O741    1.393   .     D
C721   C722    1.540   .     S
C721   O742    1.306   .     D
C721   O743    1.238   .     S
C722   C723    1.509   .     D
C723   H754    1.140   .     S
C724   C236    1.314   1_655 S
C724   O744    1.393   .     D
C725   C726    1.540   .     S
C725   O259    1.306   1_655 D
C725   O746    1.238   .     S
C726   C511    1.509   1_556 D
C726   C728    1.314   .     S
C727   H755    1.140   .     S
C728   O747    1.393   .     D
C729   C730    1.540   .     S
C729   O748    1.306   .     D
C729   O749    1.238   .     S
C730   C839    1.509   .     D
C730   C732    1.314   .     S
C731   C838    1.509   1_545 D
C731   H756    1.140   .     S
C732   O750    1.393   .     D
O736   C227    1.306   1_655 D
O744   Mg222   1.974   1_655 S
O746   Mg222   2.166   1_655 S
O748   Mg222   2.023   1_655 S
Mg757  Mg758   3.052   .     S
Mg757  O787    2.023   .     S
Mg757  O789    2.108   .     S
Mg757  O791    2.070   .     S
Mg757  O792    1.974   .     S
Mg757  O794    2.166   .     S
Mg758  Mg759   3.052   .     S
Mg758  O788    2.166   .     S
Mg758  O790    2.023   .     S
Mg758  O792    2.108   .     S
Mg758  O794    2.070   .     S
Mg758  O795    1.974   .     S
Mg759  Mg811   3.052   .     S
Mg759  O788    2.070   .     S
Mg759  O843    1.974   .     S
Mg759  O845    2.166   .     S
Mg759  O847    2.023   .     S
Mg759  O795    2.108   .     S
Mg760  Mg761   3.052   .     S
Mg760  Mg816   3.052   .     S
Mg760  O796    2.023   .     S
Mg760  O798    2.108   .     S
Mg760  O800    2.070   .     S
Mg760  O801    1.974   .     S
Mg760  O803    2.166   .     S
Mg761  Mg762   3.052   .     S
Mg761  O797    2.166   .     S
Mg761  O799    2.023   .     S
Mg761  O801    2.108   .     S
Mg761  O803    2.070   .     S
Mg761  O804    1.974   .     S
Mg762  O797    2.070   .     S
Mg762  O804    2.108   .     S
C763   C764    1.540   .     S
C763   O787    1.306   .     D
C763   O788    1.238   .     S
C764   C765    1.509   .     D
C764   C820    1.314   .     S
C765   C778    1.430   .     S
C765   H805    1.140   .     S
C766   C777    1.430   .     S
C766   O789    1.393   .     D
C767   C768    1.540   .     S
C767   O791    1.238   .     S
C768   C770    1.314   .     S
C769   C552    1.509   1_556 D
C769   C782    1.430   .     S
C769   H806    1.140   .     S
C770   C781    1.430   .     S
C770   O792    1.393   .     D
C771   C772    1.540   .     S
C771   O793    1.306   .     D
C771   O794    1.238   .     S
C772   C774    1.314   .     S
C773   C664    1.509   1_565 D
C773   C786    1.430   .     S
C773   H807    1.140   .     S
C774   C785    1.430   .     S
C774   O795    1.393   .     D
C775   C776    1.540   .     S
C775   O796    1.306   .     D
C775   O797    1.238   .     S
C776   C777    1.509   .     D
C777   H808    1.140   .     S
C778   C830    1.314   .     S
C778   O798    1.393   .     D
C779   C780    1.540   .     S
C779   O853    1.306   .     D
C779   O800    1.238   .     S
C780   C565    1.509   1_556 D
C780   C782    1.314   .     S
C781   H809    1.140   .     S
C782   O801    1.393   .     D
C783   C784    1.540   .     S
C783   O802    1.306   .     D
C783   O803    1.238   .     S
C784   C677    1.509   1_565 D
C784   C786    1.314   .     S
C785   H810    1.140   .     S
C786   O804    1.393   .     D
O790   C821    1.306   .     D
O798   Mg816   1.974   .     S
O800   Mg816   2.166   .     S
O802   Mg816   2.023   .     S
Mg811  Mg812   3.052   .     S
Mg811  O841    2.023   .     S
Mg811  O843    2.108   .     S
Mg811  O845    2.070   .     S
Mg811  O846    1.974   .     S
Mg811  O848    2.166   .     S
Mg812  Mg813   3.052   .     S
Mg812  O842    2.166   .     S
Mg812  O844    2.023   .     S
Mg812  O846    2.108   .     S
Mg812  O848    2.070   .     S
Mg812  O849    1.974   .     S
Mg813  Mg325   3.052   1_655 S
Mg813  O842    2.070   .     S
Mg813  O357    1.974   1_655 S
Mg813  O359    2.166   1_655 S
Mg813  O361    2.023   1_655 S
Mg813  O849    2.108   .     S
Mg814  Mg815   3.052   .     S
Mg814  Mg330   3.052   1_655 S
Mg814  O850    2.023   .     S
Mg814  O852    2.108   .     S
Mg814  O854    2.070   .     S
Mg814  O855    1.974   .     S
Mg814  O857    2.166   .     S
Mg815  Mg816   3.052   .     S
Mg815  O851    2.166   .     S
Mg815  O853    2.023   .     S
Mg815  O855    2.108   .     S
Mg815  O857    2.070   .     S
Mg815  O858    1.974   .     S
Mg816  O851    2.070   .     S
Mg816  O858    2.108   .     S
C817   C818    1.540   .     S
C817   O841    1.306   .     D
C817   O842    1.238   .     S
C818   C819    1.509   .     D
C818   C334    1.314   1_655 S
C819   C832    1.430   .     S
C819   H859    1.140   .     S
C820   C831    1.430   .     S
C820   O843    1.393   .     D
C821   C822    1.540   .     S
C821   O845    1.238   .     S
C822   C824    1.314   .     S
C823   C606    1.509   1_556 D
C823   C836    1.430   .     S
C823   H860    1.140   .     S
C824   C835    1.430   .     S
C824   O846    1.393   .     D
C825   C826    1.540   .     S
C825   O847    1.306   .     D
C825   O848    1.238   .     S
C826   C828    1.314   .     S
C827   C718    1.509   1_565 D
C827   C840    1.430   .     S
C827   H861    1.140   .     S
C828   C839    1.430   .     S
C828   O849    1.393   .     D
C829   C830    1.540   .     S
C829   O850    1.306   .     D
C829   O851    1.238   .     S
C830   C831    1.509   .     D
C831   H862    1.140   .     S
C832   C344    1.314   1_655 S
C832   O852    1.393   .     D
C833   C834    1.540   .     S
C833   O367    1.306   1_655 D
C833   O854    1.238   .     S
C834   C619    1.509   1_556 D
C834   C836    1.314   .     S
C835   H863    1.140   .     S
C836   O855    1.393   .     D
C837   C838    1.540   .     S
C837   O856    1.306   .     D
C837   O857    1.238   .     S
C838   C731    1.509   1_565 D
C838   C840    1.314   .     S
C839   H864    1.140   .     S
C840   O858    1.393   .     D
O844   C335    1.306   1_655 D
O852   Mg330   1.974   1_655 S
O854   Mg330   2.166   1_655 S
O856   Mg330   2.023   1_655 S
