data_VUJBEI_clean
_audit_creation_date              2015-01-20
_audit_creation_method            'Materials Studio'
_symmetry_space_group_name_H-M    'P1'
_symmetry_Int_Tables_number       1
_symmetry_cell_setting            triclinic
loop_
_symmetry_equiv_pos_as_xyz
  x,y,z
_cell_length_a                    42.8435
_cell_length_b                    42.8435
_cell_length_c                    42.8435
_cell_angle_alpha                 90.0000
_cell_angle_beta                  90.0000
_cell_angle_gamma                 90.0000
loop_
_atom_site_label
_atom_site_type_symbol
_atom_site_fract_x
_atom_site_fract_y
_atom_site_fract_z
_atom_site_U_iso_or_equiv
_atom_site_adp_type
_atom_site_occupancy
H1     H     0.56840   0.23780   0.36450   0.01267  Uiso   1.00
C2     C     0.54303   0.18335   0.37605   0.01267  Uiso   1.00
C3     C     0.56856   0.19891   0.39231   0.01267  Uiso   1.00
C4     C     0.57838   0.22816   0.38178   0.01267  Uiso   1.00
O5     O     0.53285   0.15858   0.38760   0.01267  Uiso   1.00
O6     O     0.53261   0.19513   0.35145   0.01267  Uiso   1.00
H7     H     0.56840   0.73780   0.86450   0.01267  Uiso   1.00
C8     C     0.54303   0.68335   0.87605   0.01267  Uiso   1.00
C9     C     0.56856   0.69891   0.89231   0.01267  Uiso   1.00
C10    C     0.57838   0.72816   0.88178   0.01267  Uiso   1.00
O11    O     0.53285   0.65858   0.88760   0.01267  Uiso   1.00
O12    O     0.53261   0.69513   0.85145   0.01267  Uiso   1.00
H13    H     0.06840   0.23780   0.86450   0.01267  Uiso   1.00
C14    C     0.04303   0.18335   0.87605   0.01267  Uiso   1.00
C15    C     0.06856   0.19891   0.89231   0.01267  Uiso   1.00
C16    C     0.07838   0.22816   0.88178   0.01267  Uiso   1.00
O17    O     0.03285   0.15858   0.88760   0.01267  Uiso   1.00
O18    O     0.03261   0.19513   0.85145   0.01267  Uiso   1.00
H19    H     0.06840   0.73780   0.36450   0.01267  Uiso   1.00
C20    C     0.04303   0.68335   0.37605   0.01267  Uiso   1.00
C21    C     0.06856   0.69891   0.39231   0.01267  Uiso   1.00
C22    C     0.07838   0.72816   0.38178   0.01267  Uiso   1.00
O23    O     0.03285   0.65858   0.38760   0.01267  Uiso   1.00
O24    O     0.03261   0.69513   0.35145   0.01267  Uiso   1.00
H25    H     0.43160   0.76220   0.36450   0.01267  Uiso   1.00
C26    C     0.45697   0.81665   0.37605   0.01267  Uiso   1.00
C27    C     0.43144   0.80109   0.39231   0.01267  Uiso   1.00
C28    C     0.42162   0.77184   0.38178   0.01267  Uiso   1.00
O29    O     0.46715   0.84142   0.38760   0.01267  Uiso   1.00
O30    O     0.46739   0.80487   0.35145   0.01267  Uiso   1.00
H31    H     0.43160   0.26220   0.86450   0.01267  Uiso   1.00
C32    C     0.45697   0.31665   0.87605   0.01267  Uiso   1.00
C33    C     0.43144   0.30109   0.89231   0.01267  Uiso   1.00
C34    C     0.42162   0.27184   0.88178   0.01267  Uiso   1.00
O35    O     0.46715   0.34142   0.88760   0.01267  Uiso   1.00
O36    O     0.46739   0.30487   0.85145   0.01267  Uiso   1.00
H37    H     0.93160   0.76220   0.86450   0.01267  Uiso   1.00
C38    C     0.95697   0.81665   0.87605   0.01267  Uiso   1.00
C39    C     0.93144   0.80109   0.89231   0.01267  Uiso   1.00
C40    C     0.92162   0.77184   0.88178   0.01267  Uiso   1.00
O41    O     0.96715   0.84142   0.88760   0.01267  Uiso   1.00
O42    O     0.96739   0.80487   0.85145   0.01267  Uiso   1.00
H43    H     0.93160   0.26220   0.36450   0.01267  Uiso   1.00
C44    C     0.95697   0.31665   0.37605   0.01267  Uiso   1.00
C45    C     0.93144   0.30109   0.39231   0.01267  Uiso   1.00
C46    C     0.92162   0.27184   0.38178   0.01267  Uiso   1.00
O47    O     0.96715   0.34142   0.38760   0.01267  Uiso   1.00
O48    O     0.96739   0.30487   0.35145   0.01267  Uiso   1.00
H49    H     0.43160   0.23780   0.63550   0.01267  Uiso   1.00
C50    C     0.45697   0.18335   0.62395   0.01267  Uiso   1.00
C51    C     0.43144   0.19891   0.60769   0.01267  Uiso   1.00
C52    C     0.42162   0.22816   0.61822   0.01267  Uiso   1.00
O53    O     0.46715   0.15858   0.61240   0.01267  Uiso   1.00
O54    O     0.46739   0.19513   0.64855   0.01267  Uiso   1.00
H55    H     0.43160   0.73780   0.13550   0.01267  Uiso   1.00
C56    C     0.45697   0.68335   0.12395   0.01267  Uiso   1.00
C57    C     0.43144   0.69891   0.10769   0.01267  Uiso   1.00
C58    C     0.42162   0.72816   0.11822   0.01267  Uiso   1.00
O59    O     0.46715   0.65858   0.11240   0.01267  Uiso   1.00
O60    O     0.46739   0.69513   0.14855   0.01267  Uiso   1.00
H61    H     0.93160   0.23780   0.13550   0.01267  Uiso   1.00
C62    C     0.95697   0.18335   0.12395   0.01267  Uiso   1.00
C63    C     0.93144   0.19891   0.10769   0.01267  Uiso   1.00
C64    C     0.92162   0.22816   0.11822   0.01267  Uiso   1.00
O65    O     0.96715   0.15858   0.11240   0.01267  Uiso   1.00
O66    O     0.96739   0.19513   0.14855   0.01267  Uiso   1.00
H67    H     0.93160   0.73780   0.63550   0.01267  Uiso   1.00
C68    C     0.95697   0.68335   0.62395   0.01267  Uiso   1.00
C69    C     0.93144   0.69891   0.60769   0.01267  Uiso   1.00
C70    C     0.92162   0.72816   0.61822   0.01267  Uiso   1.00
O71    O     0.96715   0.65858   0.61240   0.01267  Uiso   1.00
O72    O     0.96739   0.69513   0.64855   0.01267  Uiso   1.00
H73    H     0.56840   0.76220   0.63550   0.01267  Uiso   1.00
C74    C     0.54303   0.81665   0.62395   0.01267  Uiso   1.00
C75    C     0.56856   0.80109   0.60769   0.01267  Uiso   1.00
C76    C     0.57838   0.77184   0.61822   0.01267  Uiso   1.00
O77    O     0.53285   0.84142   0.61240   0.01267  Uiso   1.00
O78    O     0.53261   0.80487   0.64855   0.01267  Uiso   1.00
H79    H     0.56840   0.26220   0.13550   0.01267  Uiso   1.00
C80    C     0.54303   0.31665   0.12395   0.01267  Uiso   1.00
C81    C     0.56856   0.30109   0.10769   0.01267  Uiso   1.00
C82    C     0.57838   0.27184   0.11822   0.01267  Uiso   1.00
O83    O     0.53285   0.34142   0.11240   0.01267  Uiso   1.00
O84    O     0.53261   0.30487   0.14855   0.01267  Uiso   1.00
H85    H     0.06840   0.76220   0.13550   0.01267  Uiso   1.00
C86    C     0.04303   0.81665   0.12395   0.01267  Uiso   1.00
C87    C     0.06856   0.80109   0.10769   0.01267  Uiso   1.00
C88    C     0.07838   0.77184   0.11822   0.01267  Uiso   1.00
O89    O     0.03285   0.84142   0.11240   0.01267  Uiso   1.00
O90    O     0.03261   0.80487   0.14855   0.01267  Uiso   1.00
H91    H     0.06840   0.26220   0.63550   0.01267  Uiso   1.00
C92    C     0.04303   0.31665   0.62395   0.01267  Uiso   1.00
C93    C     0.06856   0.30109   0.60769   0.01267  Uiso   1.00
C94    C     0.07838   0.27184   0.61822   0.01267  Uiso   1.00
O95    O     0.03285   0.34142   0.61240   0.01267  Uiso   1.00
O96    O     0.03261   0.30487   0.64855   0.01267  Uiso   1.00
H97    H     0.36450   0.56840   0.23780   0.01267  Uiso   1.00
C98    C     0.37605   0.54303   0.18335   0.01267  Uiso   1.00
C99    C     0.39231   0.56856   0.19891   0.01267  Uiso   1.00
C100   C     0.38178   0.57838   0.22816   0.01267  Uiso   1.00
O101   O     0.38760   0.53285   0.15858   0.01267  Uiso   1.00
O102   O     0.35145   0.53261   0.19513   0.01267  Uiso   1.00
H103   H     0.36450   0.06840   0.73780   0.01267  Uiso   1.00
C104   C     0.37605   0.04303   0.68335   0.01267  Uiso   1.00
C105   C     0.39231   0.06856   0.69891   0.01267  Uiso   1.00
C106   C     0.38178   0.07838   0.72816   0.01267  Uiso   1.00
O107   O     0.38760   0.03285   0.65858   0.01267  Uiso   1.00
O108   O     0.35145   0.03261   0.69513   0.01267  Uiso   1.00
H109   H     0.86450   0.56840   0.73780   0.01267  Uiso   1.00
C110   C     0.87605   0.54303   0.68335   0.01267  Uiso   1.00
C111   C     0.89231   0.56856   0.69891   0.01267  Uiso   1.00
C112   C     0.88178   0.57838   0.72816   0.01267  Uiso   1.00
O113   O     0.88760   0.53285   0.65858   0.01267  Uiso   1.00
O114   O     0.85145   0.53261   0.69513   0.01267  Uiso   1.00
H115   H     0.86450   0.06840   0.23780   0.01267  Uiso   1.00
C116   C     0.87605   0.04303   0.18335   0.01267  Uiso   1.00
C117   C     0.89231   0.06856   0.19891   0.01267  Uiso   1.00
C118   C     0.88178   0.07838   0.22816   0.01267  Uiso   1.00
O119   O     0.88760   0.03285   0.15858   0.01267  Uiso   1.00
O120   O     0.85145   0.03261   0.19513   0.01267  Uiso   1.00
H121   H     0.36450   0.43160   0.76220   0.01267  Uiso   1.00
C122   C     0.37605   0.45697   0.81665   0.01267  Uiso   1.00
C123   C     0.39231   0.43144   0.80109   0.01267  Uiso   1.00
C124   C     0.38178   0.42162   0.77184   0.01267  Uiso   1.00
O125   O     0.38760   0.46715   0.84142   0.01267  Uiso   1.00
O126   O     0.35145   0.46739   0.80487   0.01267  Uiso   1.00
H127   H     0.36450   0.93160   0.26220   0.01267  Uiso   1.00
C128   C     0.37605   0.95697   0.31665   0.01267  Uiso   1.00
C129   C     0.39231   0.93144   0.30109   0.01267  Uiso   1.00
C130   C     0.38178   0.92162   0.27184   0.01267  Uiso   1.00
O131   O     0.38760   0.96715   0.34142   0.01267  Uiso   1.00
O132   O     0.35145   0.96739   0.30487   0.01267  Uiso   1.00
H133   H     0.86450   0.43160   0.26220   0.01267  Uiso   1.00
C134   C     0.87605   0.45697   0.31665   0.01267  Uiso   1.00
C135   C     0.89231   0.43144   0.30109   0.01267  Uiso   1.00
C136   C     0.88178   0.42162   0.27184   0.01267  Uiso   1.00
O137   O     0.88760   0.46715   0.34142   0.01267  Uiso   1.00
O138   O     0.85145   0.46739   0.30487   0.01267  Uiso   1.00
H139   H     0.86450   0.93160   0.76220   0.01267  Uiso   1.00
C140   C     0.87605   0.95697   0.81665   0.01267  Uiso   1.00
C141   C     0.89231   0.93144   0.80109   0.01267  Uiso   1.00
C142   C     0.88178   0.92162   0.77184   0.01267  Uiso   1.00
O143   O     0.88760   0.96715   0.84142   0.01267  Uiso   1.00
O144   O     0.85145   0.96739   0.80487   0.01267  Uiso   1.00
H145   H     0.63550   0.43160   0.23780   0.01267  Uiso   1.00
C146   C     0.62395   0.45697   0.18335   0.01267  Uiso   1.00
C147   C     0.60769   0.43144   0.19891   0.01267  Uiso   1.00
C148   C     0.61822   0.42162   0.22816   0.01267  Uiso   1.00
O149   O     0.61240   0.46715   0.15858   0.01267  Uiso   1.00
O150   O     0.64855   0.46739   0.19513   0.01267  Uiso   1.00
H151   H     0.63550   0.93160   0.73780   0.01267  Uiso   1.00
C152   C     0.62395   0.95697   0.68335   0.01267  Uiso   1.00
C153   C     0.60769   0.93144   0.69891   0.01267  Uiso   1.00
C154   C     0.61822   0.92162   0.72816   0.01267  Uiso   1.00
O155   O     0.61240   0.96715   0.65858   0.01267  Uiso   1.00
O156   O     0.64855   0.96739   0.69513   0.01267  Uiso   1.00
H157   H     0.13550   0.43160   0.73780   0.01267  Uiso   1.00
C158   C     0.12395   0.45697   0.68335   0.01267  Uiso   1.00
C159   C     0.10769   0.43144   0.69891   0.01267  Uiso   1.00
C160   C     0.11822   0.42162   0.72816   0.01267  Uiso   1.00
O161   O     0.11240   0.46715   0.65858   0.01267  Uiso   1.00
O162   O     0.14855   0.46739   0.69513   0.01267  Uiso   1.00
H163   H     0.13550   0.93160   0.23780   0.01267  Uiso   1.00
C164   C     0.12395   0.95697   0.18335   0.01267  Uiso   1.00
C165   C     0.10769   0.93144   0.19891   0.01267  Uiso   1.00
C166   C     0.11822   0.92162   0.22816   0.01267  Uiso   1.00
O167   O     0.11240   0.96715   0.15858   0.01267  Uiso   1.00
O168   O     0.14855   0.96739   0.19513   0.01267  Uiso   1.00
H169   H     0.63550   0.56840   0.76220   0.01267  Uiso   1.00
C170   C     0.62395   0.54303   0.81665   0.01267  Uiso   1.00
C171   C     0.60769   0.56856   0.80109   0.01267  Uiso   1.00
C172   C     0.61822   0.57838   0.77184   0.01267  Uiso   1.00
O173   O     0.61240   0.53285   0.84142   0.01267  Uiso   1.00
O174   O     0.64855   0.53261   0.80487   0.01267  Uiso   1.00
H175   H     0.63550   0.06840   0.26220   0.01267  Uiso   1.00
C176   C     0.62395   0.04303   0.31665   0.01267  Uiso   1.00
C177   C     0.60769   0.06856   0.30109   0.01267  Uiso   1.00
C178   C     0.61822   0.07838   0.27184   0.01267  Uiso   1.00
O179   O     0.61240   0.03285   0.34142   0.01267  Uiso   1.00
O180   O     0.64855   0.03261   0.30487   0.01267  Uiso   1.00
H181   H     0.13550   0.56840   0.26220   0.01267  Uiso   1.00
C182   C     0.12395   0.54303   0.31665   0.01267  Uiso   1.00
C183   C     0.10769   0.56856   0.30109   0.01267  Uiso   1.00
C184   C     0.11822   0.57838   0.27184   0.01267  Uiso   1.00
O185   O     0.11240   0.53285   0.34142   0.01267  Uiso   1.00
O186   O     0.14855   0.53261   0.30487   0.01267  Uiso   1.00
H187   H     0.13550   0.06840   0.76220   0.01267  Uiso   1.00
C188   C     0.12395   0.04303   0.81665   0.01267  Uiso   1.00
C189   C     0.10769   0.06856   0.80109   0.01267  Uiso   1.00
C190   C     0.11822   0.07838   0.77184   0.01267  Uiso   1.00
O191   O     0.11240   0.03285   0.84142   0.01267  Uiso   1.00
O192   O     0.14855   0.03261   0.80487   0.01267  Uiso   1.00
H193   H     0.23780   0.36450   0.56840   0.01267  Uiso   1.00
C194   C     0.18335   0.37605   0.54303   0.01267  Uiso   1.00
C195   C     0.19891   0.39231   0.56856   0.01267  Uiso   1.00
C196   C     0.22816   0.38178   0.57838   0.01267  Uiso   1.00
O197   O     0.15858   0.38760   0.53285   0.01267  Uiso   1.00
O198   O     0.19513   0.35145   0.53261   0.01267  Uiso   1.00
H199   H     0.23780   0.86450   0.06840   0.01267  Uiso   1.00
C200   C     0.18335   0.87605   0.04303   0.01267  Uiso   1.00
C201   C     0.19891   0.89231   0.06856   0.01267  Uiso   1.00
C202   C     0.22816   0.88178   0.07838   0.01267  Uiso   1.00
O203   O     0.15858   0.88760   0.03285   0.01267  Uiso   1.00
O204   O     0.19513   0.85145   0.03261   0.01267  Uiso   1.00
H205   H     0.73780   0.36450   0.06840   0.01267  Uiso   1.00
C206   C     0.68335   0.37605   0.04303   0.01267  Uiso   1.00
C207   C     0.69891   0.39231   0.06856   0.01267  Uiso   1.00
C208   C     0.72816   0.38178   0.07838   0.01267  Uiso   1.00
O209   O     0.65858   0.38760   0.03285   0.01267  Uiso   1.00
O210   O     0.69513   0.35145   0.03261   0.01267  Uiso   1.00
H211   H     0.73780   0.86450   0.56840   0.01267  Uiso   1.00
C212   C     0.68335   0.87605   0.54303   0.01267  Uiso   1.00
C213   C     0.69891   0.89231   0.56856   0.01267  Uiso   1.00
C214   C     0.72816   0.88178   0.57838   0.01267  Uiso   1.00
O215   O     0.65858   0.88760   0.53285   0.01267  Uiso   1.00
O216   O     0.69513   0.85145   0.53261   0.01267  Uiso   1.00
H217   H     0.76220   0.36450   0.43160   0.01267  Uiso   1.00
C218   C     0.81665   0.37605   0.45697   0.01267  Uiso   1.00
C219   C     0.80109   0.39231   0.43144   0.01267  Uiso   1.00
C220   C     0.77184   0.38178   0.42162   0.01267  Uiso   1.00
O221   O     0.84142   0.38760   0.46715   0.01267  Uiso   1.00
O222   O     0.80487   0.35145   0.46739   0.01267  Uiso   1.00
H223   H     0.76220   0.86450   0.93160   0.01267  Uiso   1.00
C224   C     0.81665   0.87605   0.95697   0.01267  Uiso   1.00
C225   C     0.80109   0.89231   0.93144   0.01267  Uiso   1.00
C226   C     0.77184   0.88178   0.92162   0.01267  Uiso   1.00
O227   O     0.84142   0.88760   0.96715   0.01267  Uiso   1.00
O228   O     0.80487   0.85145   0.96739   0.01267  Uiso   1.00
H229   H     0.26220   0.36450   0.93160   0.01267  Uiso   1.00
C230   C     0.31665   0.37605   0.95697   0.01267  Uiso   1.00
C231   C     0.30109   0.39231   0.93144   0.01267  Uiso   1.00
C232   C     0.27184   0.38178   0.92162   0.01267  Uiso   1.00
O233   O     0.34142   0.38760   0.96715   0.01267  Uiso   1.00
O234   O     0.30487   0.35145   0.96739   0.01267  Uiso   1.00
H235   H     0.26220   0.86450   0.43160   0.01267  Uiso   1.00
C236   C     0.31665   0.87605   0.45697   0.01267  Uiso   1.00
C237   C     0.30109   0.89231   0.43144   0.01267  Uiso   1.00
C238   C     0.27184   0.88178   0.42162   0.01267  Uiso   1.00
O239   O     0.34142   0.88760   0.46715   0.01267  Uiso   1.00
O240   O     0.30487   0.85145   0.46739   0.01267  Uiso   1.00
H241   H     0.23780   0.63550   0.43160   0.01267  Uiso   1.00
C242   C     0.18335   0.62395   0.45697   0.01267  Uiso   1.00
C243   C     0.19891   0.60769   0.43144   0.01267  Uiso   1.00
C244   C     0.22816   0.61822   0.42162   0.01267  Uiso   1.00
O245   O     0.15858   0.61240   0.46715   0.01267  Uiso   1.00
O246   O     0.19513   0.64855   0.46739   0.01267  Uiso   1.00
H247   H     0.23780   0.13550   0.93160   0.01267  Uiso   1.00
C248   C     0.18335   0.12395   0.95697   0.01267  Uiso   1.00
C249   C     0.19891   0.10769   0.93144   0.01267  Uiso   1.00
C250   C     0.22816   0.11822   0.92162   0.01267  Uiso   1.00
O251   O     0.15858   0.11240   0.96715   0.01267  Uiso   1.00
O252   O     0.19513   0.14855   0.96739   0.01267  Uiso   1.00
H253   H     0.73780   0.63550   0.93160   0.01267  Uiso   1.00
C254   C     0.68335   0.62395   0.95697   0.01267  Uiso   1.00
C255   C     0.69891   0.60769   0.93144   0.01267  Uiso   1.00
C256   C     0.72816   0.61822   0.92162   0.01267  Uiso   1.00
O257   O     0.65858   0.61240   0.96715   0.01267  Uiso   1.00
O258   O     0.69513   0.64855   0.96739   0.01267  Uiso   1.00
H259   H     0.73780   0.13550   0.43160   0.01267  Uiso   1.00
C260   C     0.68335   0.12395   0.45697   0.01267  Uiso   1.00
C261   C     0.69891   0.10769   0.43144   0.01267  Uiso   1.00
C262   C     0.72816   0.11822   0.42162   0.01267  Uiso   1.00
O263   O     0.65858   0.11240   0.46715   0.01267  Uiso   1.00
O264   O     0.69513   0.14855   0.46739   0.01267  Uiso   1.00
H265   H     0.76220   0.63550   0.56840   0.01267  Uiso   1.00
C266   C     0.81665   0.62395   0.54303   0.01267  Uiso   1.00
C267   C     0.80109   0.60769   0.56856   0.01267  Uiso   1.00
C268   C     0.77184   0.61822   0.57838   0.01267  Uiso   1.00
O269   O     0.84142   0.61240   0.53285   0.01267  Uiso   1.00
O270   O     0.80487   0.64855   0.53261   0.01267  Uiso   1.00
H271   H     0.76220   0.13550   0.06840   0.01267  Uiso   1.00
C272   C     0.81665   0.12395   0.04303   0.01267  Uiso   1.00
C273   C     0.80109   0.10769   0.06856   0.01267  Uiso   1.00
C274   C     0.77184   0.11822   0.07838   0.01267  Uiso   1.00
O275   O     0.84142   0.11240   0.03285   0.01267  Uiso   1.00
O276   O     0.80487   0.14855   0.03261   0.01267  Uiso   1.00
H277   H     0.26220   0.63550   0.06840   0.01267  Uiso   1.00
C278   C     0.31665   0.62395   0.04303   0.01267  Uiso   1.00
C279   C     0.30109   0.60769   0.06856   0.01267  Uiso   1.00
C280   C     0.27184   0.61822   0.07838   0.01267  Uiso   1.00
O281   O     0.34142   0.61240   0.03285   0.01267  Uiso   1.00
O282   O     0.30487   0.64855   0.03261   0.01267  Uiso   1.00
H283   H     0.26220   0.13550   0.56840   0.01267  Uiso   1.00
C284   C     0.31665   0.12395   0.54303   0.01267  Uiso   1.00
C285   C     0.30109   0.10769   0.56856   0.01267  Uiso   1.00
C286   C     0.27184   0.11822   0.57838   0.01267  Uiso   1.00
O287   O     0.34142   0.11240   0.53285   0.01267  Uiso   1.00
O288   O     0.30487   0.14855   0.53261   0.01267  Uiso   1.00
H289   H     0.23780   0.56840   0.63550   0.01267  Uiso   1.00
C290   C     0.18335   0.54303   0.62395   0.01267  Uiso   1.00
C291   C     0.19891   0.56856   0.60769   0.01267  Uiso   1.00
C292   C     0.22816   0.57838   0.61822   0.01267  Uiso   1.00
O293   O     0.15858   0.53285   0.61240   0.01267  Uiso   1.00
O294   O     0.19513   0.53261   0.64855   0.01267  Uiso   1.00
H295   H     0.23780   0.06840   0.13550   0.01267  Uiso   1.00
C296   C     0.18335   0.04303   0.12395   0.01267  Uiso   1.00
C297   C     0.19891   0.06856   0.10769   0.01267  Uiso   1.00
C298   C     0.22816   0.07838   0.11822   0.01267  Uiso   1.00
O299   O     0.15858   0.03285   0.11240   0.01267  Uiso   1.00
O300   O     0.19513   0.03261   0.14855   0.01267  Uiso   1.00
H301   H     0.73780   0.56840   0.13550   0.01267  Uiso   1.00
C302   C     0.68335   0.54303   0.12395   0.01267  Uiso   1.00
C303   C     0.69891   0.56856   0.10769   0.01267  Uiso   1.00
C304   C     0.72816   0.57838   0.11822   0.01267  Uiso   1.00
O305   O     0.65858   0.53285   0.11240   0.01267  Uiso   1.00
O306   O     0.69513   0.53261   0.14855   0.01267  Uiso   1.00
H307   H     0.73780   0.06840   0.63550   0.01267  Uiso   1.00
C308   C     0.68335   0.04303   0.62395   0.01267  Uiso   1.00
C309   C     0.69891   0.06856   0.60769   0.01267  Uiso   1.00
C310   C     0.72816   0.07838   0.61822   0.01267  Uiso   1.00
O311   O     0.65858   0.03285   0.61240   0.01267  Uiso   1.00
O312   O     0.69513   0.03261   0.64855   0.01267  Uiso   1.00
H313   H     0.76220   0.43160   0.63550   0.01267  Uiso   1.00
C314   C     0.81665   0.45697   0.62395   0.01267  Uiso   1.00
C315   C     0.80109   0.43144   0.60769   0.01267  Uiso   1.00
C316   C     0.77184   0.42162   0.61822   0.01267  Uiso   1.00
O317   O     0.84142   0.46715   0.61240   0.01267  Uiso   1.00
O318   O     0.80487   0.46739   0.64855   0.01267  Uiso   1.00
H319   H     0.76220   0.93160   0.13550   0.01267  Uiso   1.00
C320   C     0.81665   0.95697   0.12395   0.01267  Uiso   1.00
C321   C     0.80109   0.93144   0.10769   0.01267  Uiso   1.00
C322   C     0.77184   0.92162   0.11822   0.01267  Uiso   1.00
O323   O     0.84142   0.96715   0.11240   0.01267  Uiso   1.00
O324   O     0.80487   0.96739   0.14855   0.01267  Uiso   1.00
H325   H     0.26220   0.43160   0.13550   0.01267  Uiso   1.00
C326   C     0.31665   0.45697   0.12395   0.01267  Uiso   1.00
C327   C     0.30109   0.43144   0.10769   0.01267  Uiso   1.00
C328   C     0.27184   0.42162   0.11822   0.01267  Uiso   1.00
O329   O     0.34142   0.46715   0.11240   0.01267  Uiso   1.00
O330   O     0.30487   0.46739   0.14855   0.01267  Uiso   1.00
H331   H     0.26220   0.93160   0.63550   0.01267  Uiso   1.00
C332   C     0.31665   0.95697   0.62395   0.01267  Uiso   1.00
C333   C     0.30109   0.93144   0.60769   0.01267  Uiso   1.00
C334   C     0.27184   0.92162   0.61822   0.01267  Uiso   1.00
O335   O     0.34142   0.96715   0.61240   0.01267  Uiso   1.00
O336   O     0.30487   0.96739   0.64855   0.01267  Uiso   1.00
H337   H     0.23780   0.43160   0.36450   0.01267  Uiso   1.00
C338   C     0.18335   0.45697   0.37605   0.01267  Uiso   1.00
C339   C     0.19891   0.43144   0.39231   0.01267  Uiso   1.00
C340   C     0.22816   0.42162   0.38178   0.01267  Uiso   1.00
O341   O     0.15858   0.46715   0.38760   0.01267  Uiso   1.00
O342   O     0.19513   0.46739   0.35145   0.01267  Uiso   1.00
H343   H     0.23780   0.93160   0.86450   0.01267  Uiso   1.00
C344   C     0.18335   0.95697   0.87605   0.01267  Uiso   1.00
C345   C     0.19891   0.93144   0.89231   0.01267  Uiso   1.00
C346   C     0.22816   0.92162   0.88178   0.01267  Uiso   1.00
O347   O     0.15858   0.96715   0.88760   0.01267  Uiso   1.00
O348   O     0.19513   0.96739   0.85145   0.01267  Uiso   1.00
H349   H     0.73780   0.43160   0.86450   0.01267  Uiso   1.00
C350   C     0.68335   0.45697   0.87605   0.01267  Uiso   1.00
C351   C     0.69891   0.43144   0.89231   0.01267  Uiso   1.00
C352   C     0.72816   0.42162   0.88178   0.01267  Uiso   1.00
O353   O     0.65858   0.46715   0.88760   0.01267  Uiso   1.00
O354   O     0.69513   0.46739   0.85145   0.01267  Uiso   1.00
H355   H     0.73780   0.93160   0.36450   0.01267  Uiso   1.00
C356   C     0.68335   0.95697   0.37605   0.01267  Uiso   1.00
C357   C     0.69891   0.93144   0.39231   0.01267  Uiso   1.00
C358   C     0.72816   0.92162   0.38178   0.01267  Uiso   1.00
O359   O     0.65858   0.96715   0.38760   0.01267  Uiso   1.00
O360   O     0.69513   0.96739   0.35145   0.01267  Uiso   1.00
H361   H     0.76220   0.56840   0.36450   0.01267  Uiso   1.00
C362   C     0.81665   0.54303   0.37605   0.01267  Uiso   1.00
C363   C     0.80109   0.56856   0.39231   0.01267  Uiso   1.00
C364   C     0.77184   0.57838   0.38178   0.01267  Uiso   1.00
O365   O     0.84142   0.53285   0.38760   0.01267  Uiso   1.00
O366   O     0.80487   0.53261   0.35145   0.01267  Uiso   1.00
H367   H     0.76220   0.06840   0.86450   0.01267  Uiso   1.00
C368   C     0.81665   0.04303   0.87605   0.01267  Uiso   1.00
C369   C     0.80109   0.06856   0.89231   0.01267  Uiso   1.00
C370   C     0.77184   0.07838   0.88178   0.01267  Uiso   1.00
O371   O     0.84142   0.03285   0.88760   0.01267  Uiso   1.00
O372   O     0.80487   0.03261   0.85145   0.01267  Uiso   1.00
H373   H     0.26220   0.56840   0.86450   0.01267  Uiso   1.00
C374   C     0.31665   0.54303   0.87605   0.01267  Uiso   1.00
C375   C     0.30109   0.56856   0.89231   0.01267  Uiso   1.00
C376   C     0.27184   0.57838   0.88178   0.01267  Uiso   1.00
O377   O     0.34142   0.53285   0.88760   0.01267  Uiso   1.00
O378   O     0.30487   0.53261   0.85145   0.01267  Uiso   1.00
H379   H     0.26220   0.06840   0.36450   0.01267  Uiso   1.00
C380   C     0.31665   0.04303   0.37605   0.01267  Uiso   1.00
C381   C     0.30109   0.06856   0.39231   0.01267  Uiso   1.00
C382   C     0.27184   0.07838   0.38178   0.01267  Uiso   1.00
O383   O     0.34142   0.03285   0.38760   0.01267  Uiso   1.00
O384   O     0.30487   0.03261   0.35145   0.01267  Uiso   1.00
H385   H     0.56840   0.36450   0.76220   0.01267  Uiso   1.00
C386   C     0.54303   0.37605   0.81665   0.01267  Uiso   1.00
C387   C     0.56856   0.39231   0.80109   0.01267  Uiso   1.00
C388   C     0.57838   0.38178   0.77184   0.01267  Uiso   1.00
O389   O     0.53285   0.38760   0.84142   0.01267  Uiso   1.00
O390   O     0.53261   0.35145   0.80487   0.01267  Uiso   1.00
H391   H     0.56840   0.86450   0.26220   0.01267  Uiso   1.00
C392   C     0.54303   0.87605   0.31665   0.01267  Uiso   1.00
C393   C     0.56856   0.89231   0.30109   0.01267  Uiso   1.00
C394   C     0.57838   0.88178   0.27184   0.01267  Uiso   1.00
O395   O     0.53285   0.88760   0.34142   0.01267  Uiso   1.00
O396   O     0.53261   0.85145   0.30487   0.01267  Uiso   1.00
H397   H     0.06840   0.36450   0.26220   0.01267  Uiso   1.00
C398   C     0.04303   0.37605   0.31665   0.01267  Uiso   1.00
C399   C     0.06856   0.39231   0.30109   0.01267  Uiso   1.00
C400   C     0.07838   0.38178   0.27184   0.01267  Uiso   1.00
O401   O     0.03285   0.38760   0.34142   0.01267  Uiso   1.00
O402   O     0.03261   0.35145   0.30487   0.01267  Uiso   1.00
H403   H     0.06840   0.86450   0.76220   0.01267  Uiso   1.00
C404   C     0.04303   0.87605   0.81665   0.01267  Uiso   1.00
C405   C     0.06856   0.89231   0.80109   0.01267  Uiso   1.00
C406   C     0.07838   0.88178   0.77184   0.01267  Uiso   1.00
O407   O     0.03285   0.88760   0.84142   0.01267  Uiso   1.00
O408   O     0.03261   0.85145   0.80487   0.01267  Uiso   1.00
H409   H     0.43160   0.36450   0.23780   0.01267  Uiso   1.00
C410   C     0.45697   0.37605   0.18335   0.01267  Uiso   1.00
C411   C     0.43144   0.39231   0.19891   0.01267  Uiso   1.00
C412   C     0.42162   0.38178   0.22816   0.01267  Uiso   1.00
O413   O     0.46715   0.38760   0.15858   0.01267  Uiso   1.00
O414   O     0.46739   0.35145   0.19513   0.01267  Uiso   1.00
H415   H     0.43160   0.86450   0.73780   0.01267  Uiso   1.00
C416   C     0.45697   0.87605   0.68335   0.01267  Uiso   1.00
C417   C     0.43144   0.89231   0.69891   0.01267  Uiso   1.00
C418   C     0.42162   0.88178   0.72816   0.01267  Uiso   1.00
O419   O     0.46715   0.88760   0.65858   0.01267  Uiso   1.00
O420   O     0.46739   0.85145   0.69513   0.01267  Uiso   1.00
H421   H     0.93160   0.36450   0.73780   0.01267  Uiso   1.00
C422   C     0.95697   0.37605   0.68335   0.01267  Uiso   1.00
C423   C     0.93144   0.39231   0.69891   0.01267  Uiso   1.00
C424   C     0.92162   0.38178   0.72816   0.01267  Uiso   1.00
O425   O     0.96715   0.38760   0.65858   0.01267  Uiso   1.00
O426   O     0.96739   0.35145   0.69513   0.01267  Uiso   1.00
H427   H     0.93160   0.86450   0.23780   0.01267  Uiso   1.00
C428   C     0.95697   0.87605   0.18335   0.01267  Uiso   1.00
C429   C     0.93144   0.89231   0.19891   0.01267  Uiso   1.00
C430   C     0.92162   0.88178   0.22816   0.01267  Uiso   1.00
O431   O     0.96715   0.88760   0.15858   0.01267  Uiso   1.00
O432   O     0.96739   0.85145   0.19513   0.01267  Uiso   1.00
H433   H     0.43160   0.63550   0.76220   0.01267  Uiso   1.00
C434   C     0.45697   0.62395   0.81665   0.01267  Uiso   1.00
C435   C     0.43144   0.60769   0.80109   0.01267  Uiso   1.00
C436   C     0.42162   0.61822   0.77184   0.01267  Uiso   1.00
O437   O     0.46715   0.61240   0.84142   0.01267  Uiso   1.00
O438   O     0.46739   0.64855   0.80487   0.01267  Uiso   1.00
H439   H     0.43160   0.13550   0.26220   0.01267  Uiso   1.00
C440   C     0.45697   0.12395   0.31665   0.01267  Uiso   1.00
C441   C     0.43144   0.10769   0.30109   0.01267  Uiso   1.00
C442   C     0.42162   0.11822   0.27184   0.01267  Uiso   1.00
O443   O     0.46715   0.11240   0.34142   0.01267  Uiso   1.00
O444   O     0.46739   0.14855   0.30487   0.01267  Uiso   1.00
H445   H     0.93160   0.63550   0.26220   0.01267  Uiso   1.00
C446   C     0.95697   0.62395   0.31665   0.01267  Uiso   1.00
C447   C     0.93144   0.60769   0.30109   0.01267  Uiso   1.00
C448   C     0.92162   0.61822   0.27184   0.01267  Uiso   1.00
O449   O     0.96715   0.61240   0.34142   0.01267  Uiso   1.00
O450   O     0.96739   0.64855   0.30487   0.01267  Uiso   1.00
H451   H     0.93160   0.13550   0.76220   0.01267  Uiso   1.00
C452   C     0.95697   0.12395   0.81665   0.01267  Uiso   1.00
C453   C     0.93144   0.10769   0.80109   0.01267  Uiso   1.00
C454   C     0.92162   0.11822   0.77184   0.01267  Uiso   1.00
O455   O     0.96715   0.11240   0.84142   0.01267  Uiso   1.00
O456   O     0.96739   0.14855   0.80487   0.01267  Uiso   1.00
H457   H     0.56840   0.63550   0.23780   0.01267  Uiso   1.00
C458   C     0.54303   0.62395   0.18335   0.01267  Uiso   1.00
C459   C     0.56856   0.60769   0.19891   0.01267  Uiso   1.00
C460   C     0.57838   0.61822   0.22816   0.01267  Uiso   1.00
O461   O     0.53285   0.61240   0.15858   0.01267  Uiso   1.00
O462   O     0.53261   0.64855   0.19513   0.01267  Uiso   1.00
H463   H     0.56840   0.13550   0.73780   0.01267  Uiso   1.00
C464   C     0.54303   0.12395   0.68335   0.01267  Uiso   1.00
C465   C     0.56856   0.10769   0.69891   0.01267  Uiso   1.00
C466   C     0.57838   0.11822   0.72816   0.01267  Uiso   1.00
O467   O     0.53285   0.11240   0.65858   0.01267  Uiso   1.00
O468   O     0.53261   0.14855   0.69513   0.01267  Uiso   1.00
H469   H     0.06840   0.63550   0.73780   0.01267  Uiso   1.00
C470   C     0.04303   0.62395   0.68335   0.01267  Uiso   1.00
C471   C     0.06856   0.60769   0.69891   0.01267  Uiso   1.00
C472   C     0.07838   0.61822   0.72816   0.01267  Uiso   1.00
O473   O     0.03285   0.61240   0.65858   0.01267  Uiso   1.00
O474   O     0.03261   0.64855   0.69513   0.01267  Uiso   1.00
H475   H     0.06840   0.13550   0.23780   0.01267  Uiso   1.00
C476   C     0.04303   0.12395   0.18335   0.01267  Uiso   1.00
C477   C     0.06856   0.10769   0.19891   0.01267  Uiso   1.00
C478   C     0.07838   0.11822   0.22816   0.01267  Uiso   1.00
O479   O     0.03285   0.11240   0.15858   0.01267  Uiso   1.00
O480   O     0.03261   0.14855   0.19513   0.01267  Uiso   1.00
H481   H     0.36450   0.23780   0.43160   0.01267  Uiso   1.00
C482   C     0.37605   0.18335   0.45697   0.01267  Uiso   1.00
C483   C     0.39231   0.19891   0.43144   0.01267  Uiso   1.00
C484   C     0.38178   0.22816   0.42162   0.01267  Uiso   1.00
O485   O     0.38760   0.15858   0.46715   0.01267  Uiso   1.00
O486   O     0.35145   0.19513   0.46739   0.01267  Uiso   1.00
H487   H     0.36450   0.73780   0.93160   0.01267  Uiso   1.00
C488   C     0.37605   0.68335   0.95697   0.01267  Uiso   1.00
C489   C     0.39231   0.69891   0.93144   0.01267  Uiso   1.00
C490   C     0.38178   0.72816   0.92162   0.01267  Uiso   1.00
O491   O     0.38760   0.65858   0.96715   0.01267  Uiso   1.00
O492   O     0.35145   0.69513   0.96739   0.01267  Uiso   1.00
H493   H     0.86450   0.23780   0.93160   0.01267  Uiso   1.00
C494   C     0.87605   0.18335   0.95697   0.01267  Uiso   1.00
C495   C     0.89231   0.19891   0.93144   0.01267  Uiso   1.00
C496   C     0.88178   0.22816   0.92162   0.01267  Uiso   1.00
O497   O     0.88760   0.15858   0.96715   0.01267  Uiso   1.00
O498   O     0.85145   0.19513   0.96739   0.01267  Uiso   1.00
H499   H     0.86450   0.73780   0.43160   0.01267  Uiso   1.00
C500   C     0.87605   0.68335   0.45697   0.01267  Uiso   1.00
C501   C     0.89231   0.69891   0.43144   0.01267  Uiso   1.00
C502   C     0.88178   0.72816   0.42162   0.01267  Uiso   1.00
O503   O     0.88760   0.65858   0.46715   0.01267  Uiso   1.00
O504   O     0.85145   0.69513   0.46739   0.01267  Uiso   1.00
H505   H     0.36450   0.76220   0.56840   0.01267  Uiso   1.00
C506   C     0.37605   0.81665   0.54303   0.01267  Uiso   1.00
C507   C     0.39231   0.80109   0.56856   0.01267  Uiso   1.00
C508   C     0.38178   0.77184   0.57838   0.01267  Uiso   1.00
O509   O     0.38760   0.84142   0.53285   0.01267  Uiso   1.00
O510   O     0.35145   0.80487   0.53261   0.01267  Uiso   1.00
H511   H     0.36450   0.26220   0.06840   0.01267  Uiso   1.00
C512   C     0.37605   0.31665   0.04303   0.01267  Uiso   1.00
C513   C     0.39231   0.30109   0.06856   0.01267  Uiso   1.00
C514   C     0.38178   0.27184   0.07838   0.01267  Uiso   1.00
O515   O     0.38760   0.34142   0.03285   0.01267  Uiso   1.00
O516   O     0.35145   0.30487   0.03261   0.01267  Uiso   1.00
H517   H     0.86450   0.76220   0.06840   0.01267  Uiso   1.00
C518   C     0.87605   0.81665   0.04303   0.01267  Uiso   1.00
C519   C     0.89231   0.80109   0.06856   0.01267  Uiso   1.00
C520   C     0.88178   0.77184   0.07838   0.01267  Uiso   1.00
O521   O     0.88760   0.84142   0.03285   0.01267  Uiso   1.00
O522   O     0.85145   0.80487   0.03261   0.01267  Uiso   1.00
H523   H     0.86450   0.26220   0.56840   0.01267  Uiso   1.00
C524   C     0.87605   0.31665   0.54303   0.01267  Uiso   1.00
C525   C     0.89231   0.30109   0.56856   0.01267  Uiso   1.00
C526   C     0.88178   0.27184   0.57838   0.01267  Uiso   1.00
O527   O     0.88760   0.34142   0.53285   0.01267  Uiso   1.00
O528   O     0.85145   0.30487   0.53261   0.01267  Uiso   1.00
H529   H     0.63550   0.23780   0.56840   0.01267  Uiso   1.00
C530   C     0.62395   0.18335   0.54303   0.01267  Uiso   1.00
C531   C     0.60769   0.19891   0.56856   0.01267  Uiso   1.00
C532   C     0.61822   0.22816   0.57838   0.01267  Uiso   1.00
O533   O     0.61240   0.15858   0.53285   0.01267  Uiso   1.00
O534   O     0.64855   0.19513   0.53261   0.01267  Uiso   1.00
H535   H     0.63550   0.73780   0.06840   0.01267  Uiso   1.00
C536   C     0.62395   0.68335   0.04303   0.01267  Uiso   1.00
C537   C     0.60769   0.69891   0.06856   0.01267  Uiso   1.00
C538   C     0.61822   0.72816   0.07838   0.01267  Uiso   1.00
O539   O     0.61240   0.65858   0.03285   0.01267  Uiso   1.00
O540   O     0.64855   0.69513   0.03261   0.01267  Uiso   1.00
H541   H     0.13550   0.23780   0.06840   0.01267  Uiso   1.00
C542   C     0.12395   0.18335   0.04303   0.01267  Uiso   1.00
C543   C     0.10769   0.19891   0.06856   0.01267  Uiso   1.00
C544   C     0.11822   0.22816   0.07838   0.01267  Uiso   1.00
O545   O     0.11240   0.15858   0.03285   0.01267  Uiso   1.00
O546   O     0.14855   0.19513   0.03261   0.01267  Uiso   1.00
H547   H     0.13550   0.73780   0.56840   0.01267  Uiso   1.00
C548   C     0.12395   0.68335   0.54303   0.01267  Uiso   1.00
C549   C     0.10769   0.69891   0.56856   0.01267  Uiso   1.00
C550   C     0.11822   0.72816   0.57838   0.01267  Uiso   1.00
O551   O     0.11240   0.65858   0.53285   0.01267  Uiso   1.00
O552   O     0.14855   0.69513   0.53261   0.01267  Uiso   1.00
H553   H     0.63550   0.76220   0.43160   0.01267  Uiso   1.00
C554   C     0.62395   0.81665   0.45697   0.01267  Uiso   1.00
C555   C     0.60769   0.80109   0.43144   0.01267  Uiso   1.00
C556   C     0.61822   0.77184   0.42162   0.01267  Uiso   1.00
O557   O     0.61240   0.84142   0.46715   0.01267  Uiso   1.00
O558   O     0.64855   0.80487   0.46739   0.01267  Uiso   1.00
H559   H     0.63550   0.26220   0.93160   0.01267  Uiso   1.00
C560   C     0.62395   0.31665   0.95697   0.01267  Uiso   1.00
C561   C     0.60769   0.30109   0.93144   0.01267  Uiso   1.00
C562   C     0.61822   0.27184   0.92162   0.01267  Uiso   1.00
O563   O     0.61240   0.34142   0.96715   0.01267  Uiso   1.00
O564   O     0.64855   0.30487   0.96739   0.01267  Uiso   1.00
H565   H     0.13550   0.76220   0.93160   0.01267  Uiso   1.00
C566   C     0.12395   0.81665   0.95697   0.01267  Uiso   1.00
C567   C     0.10769   0.80109   0.93144   0.01267  Uiso   1.00
C568   C     0.11822   0.77184   0.92162   0.01267  Uiso   1.00
O569   O     0.11240   0.84142   0.96715   0.01267  Uiso   1.00
O570   O     0.14855   0.80487   0.96739   0.01267  Uiso   1.00
H571   H     0.13550   0.26220   0.43160   0.01267  Uiso   1.00
C572   C     0.12395   0.31665   0.45697   0.01267  Uiso   1.00
C573   C     0.10769   0.30109   0.43144   0.01267  Uiso   1.00
C574   C     0.11822   0.27184   0.42162   0.01267  Uiso   1.00
O575   O     0.11240   0.34142   0.46715   0.01267  Uiso   1.00
O576   O     0.14855   0.30487   0.46739   0.01267  Uiso   1.00
H577   H     0.43160   0.76220   0.63550   0.01267  Uiso   1.00
C578   C     0.45697   0.81665   0.62395   0.01267  Uiso   1.00
C579   C     0.43144   0.80109   0.60769   0.01267  Uiso   1.00
C580   C     0.42162   0.77184   0.61822   0.01267  Uiso   1.00
O581   O     0.46715   0.84142   0.61240   0.01267  Uiso   1.00
O582   O     0.46739   0.80487   0.64855   0.01267  Uiso   1.00
H583   H     0.43160   0.26220   0.13550   0.01267  Uiso   1.00
C584   C     0.45697   0.31665   0.12395   0.01267  Uiso   1.00
C585   C     0.43144   0.30109   0.10769   0.01267  Uiso   1.00
C586   C     0.42162   0.27184   0.11822   0.01267  Uiso   1.00
O587   O     0.46715   0.34142   0.11240   0.01267  Uiso   1.00
O588   O     0.46739   0.30487   0.14855   0.01267  Uiso   1.00
H589   H     0.93160   0.76220   0.13550   0.01267  Uiso   1.00
C590   C     0.95697   0.81665   0.12395   0.01267  Uiso   1.00
C591   C     0.93144   0.80109   0.10769   0.01267  Uiso   1.00
C592   C     0.92162   0.77184   0.11822   0.01267  Uiso   1.00
O593   O     0.96715   0.84142   0.11240   0.01267  Uiso   1.00
O594   O     0.96739   0.80487   0.14855   0.01267  Uiso   1.00
H595   H     0.93160   0.26220   0.63550   0.01267  Uiso   1.00
C596   C     0.95697   0.31665   0.62395   0.01267  Uiso   1.00
C597   C     0.93144   0.30109   0.60769   0.01267  Uiso   1.00
C598   C     0.92162   0.27184   0.61822   0.01267  Uiso   1.00
O599   O     0.96715   0.34142   0.61240   0.01267  Uiso   1.00
O600   O     0.96739   0.30487   0.64855   0.01267  Uiso   1.00
H601   H     0.56840   0.23780   0.63550   0.01267  Uiso   1.00
C602   C     0.54303   0.18335   0.62395   0.01267  Uiso   1.00
C603   C     0.56856   0.19891   0.60769   0.01267  Uiso   1.00
C604   C     0.57838   0.22816   0.61822   0.01267  Uiso   1.00
O605   O     0.53285   0.15858   0.61240   0.01267  Uiso   1.00
O606   O     0.53261   0.19513   0.64855   0.01267  Uiso   1.00
H607   H     0.56840   0.73780   0.13550   0.01267  Uiso   1.00
C608   C     0.54303   0.68335   0.12395   0.01267  Uiso   1.00
C609   C     0.56856   0.69891   0.10769   0.01267  Uiso   1.00
C610   C     0.57838   0.72816   0.11822   0.01267  Uiso   1.00
O611   O     0.53285   0.65858   0.11240   0.01267  Uiso   1.00
O612   O     0.53261   0.69513   0.14855   0.01267  Uiso   1.00
H613   H     0.06840   0.23780   0.13550   0.01267  Uiso   1.00
C614   C     0.04303   0.18335   0.12395   0.01267  Uiso   1.00
C615   C     0.06856   0.19891   0.10769   0.01267  Uiso   1.00
C616   C     0.07838   0.22816   0.11822   0.01267  Uiso   1.00
O617   O     0.03285   0.15858   0.11240   0.01267  Uiso   1.00
O618   O     0.03261   0.19513   0.14855   0.01267  Uiso   1.00
H619   H     0.06840   0.73780   0.63550   0.01267  Uiso   1.00
C620   C     0.04303   0.68335   0.62395   0.01267  Uiso   1.00
C621   C     0.06856   0.69891   0.60769   0.01267  Uiso   1.00
C622   C     0.07838   0.72816   0.61822   0.01267  Uiso   1.00
O623   O     0.03285   0.65858   0.61240   0.01267  Uiso   1.00
O624   O     0.03261   0.69513   0.64855   0.01267  Uiso   1.00
H625   H     0.56840   0.76220   0.36450   0.01267  Uiso   1.00
C626   C     0.54303   0.81665   0.37605   0.01267  Uiso   1.00
C627   C     0.56856   0.80109   0.39231   0.01267  Uiso   1.00
C628   C     0.57838   0.77184   0.38178   0.01267  Uiso   1.00
O629   O     0.53285   0.84142   0.38760   0.01267  Uiso   1.00
O630   O     0.53261   0.80487   0.35145   0.01267  Uiso   1.00
H631   H     0.56840   0.26220   0.86450   0.01267  Uiso   1.00
C632   C     0.54303   0.31665   0.87605   0.01267  Uiso   1.00
C633   C     0.56856   0.30109   0.89231   0.01267  Uiso   1.00
C634   C     0.57838   0.27184   0.88178   0.01267  Uiso   1.00
O635   O     0.53285   0.34142   0.88760   0.01267  Uiso   1.00
O636   O     0.53261   0.30487   0.85145   0.01267  Uiso   1.00
H637   H     0.06840   0.76220   0.86450   0.01267  Uiso   1.00
C638   C     0.04303   0.81665   0.87605   0.01267  Uiso   1.00
C639   C     0.06856   0.80109   0.89231   0.01267  Uiso   1.00
C640   C     0.07838   0.77184   0.88178   0.01267  Uiso   1.00
O641   O     0.03285   0.84142   0.88760   0.01267  Uiso   1.00
O642   O     0.03261   0.80487   0.85145   0.01267  Uiso   1.00
H643   H     0.06840   0.26220   0.36450   0.01267  Uiso   1.00
C644   C     0.04303   0.31665   0.37605   0.01267  Uiso   1.00
C645   C     0.06856   0.30109   0.39231   0.01267  Uiso   1.00
C646   C     0.07838   0.27184   0.38178   0.01267  Uiso   1.00
O647   O     0.03285   0.34142   0.38760   0.01267  Uiso   1.00
O648   O     0.03261   0.30487   0.35145   0.01267  Uiso   1.00
H649   H     0.43160   0.23780   0.36450   0.01267  Uiso   1.00
C650   C     0.45697   0.18335   0.37605   0.01267  Uiso   1.00
C651   C     0.43144   0.19891   0.39231   0.01267  Uiso   1.00
C652   C     0.42162   0.22816   0.38178   0.01267  Uiso   1.00
O653   O     0.46715   0.15858   0.38760   0.01267  Uiso   1.00
O654   O     0.46739   0.19513   0.35145   0.01267  Uiso   1.00
H655   H     0.43160   0.73780   0.86450   0.01267  Uiso   1.00
C656   C     0.45697   0.68335   0.87605   0.01267  Uiso   1.00
C657   C     0.43144   0.69891   0.89231   0.01267  Uiso   1.00
C658   C     0.42162   0.72816   0.88178   0.01267  Uiso   1.00
O659   O     0.46715   0.65858   0.88760   0.01267  Uiso   1.00
O660   O     0.46739   0.69513   0.85145   0.01267  Uiso   1.00
H661   H     0.93160   0.23780   0.86450   0.01267  Uiso   1.00
C662   C     0.95697   0.18335   0.87605   0.01267  Uiso   1.00
C663   C     0.93144   0.19891   0.89231   0.01267  Uiso   1.00
C664   C     0.92162   0.22816   0.88178   0.01267  Uiso   1.00
O665   O     0.96715   0.15858   0.88760   0.01267  Uiso   1.00
O666   O     0.96739   0.19513   0.85145   0.01267  Uiso   1.00
H667   H     0.93160   0.73780   0.36450   0.01267  Uiso   1.00
C668   C     0.95697   0.68335   0.37605   0.01267  Uiso   1.00
C669   C     0.93144   0.69891   0.39231   0.01267  Uiso   1.00
C670   C     0.92162   0.72816   0.38178   0.01267  Uiso   1.00
O671   O     0.96715   0.65858   0.38760   0.01267  Uiso   1.00
O672   O     0.96739   0.69513   0.35145   0.01267  Uiso   1.00
H673   H     0.63550   0.43160   0.76220   0.01267  Uiso   1.00
C674   C     0.62395   0.45697   0.81665   0.01267  Uiso   1.00
C675   C     0.60769   0.43144   0.80109   0.01267  Uiso   1.00
C676   C     0.61822   0.42162   0.77184   0.01267  Uiso   1.00
O677   O     0.61240   0.46715   0.84142   0.01267  Uiso   1.00
O678   O     0.64855   0.46739   0.80487   0.01267  Uiso   1.00
H679   H     0.63550   0.93160   0.26220   0.01267  Uiso   1.00
C680   C     0.62395   0.95697   0.31665   0.01267  Uiso   1.00
C681   C     0.60769   0.93144   0.30109   0.01267  Uiso   1.00
C682   C     0.61822   0.92162   0.27184   0.01267  Uiso   1.00
O683   O     0.61240   0.96715   0.34142   0.01267  Uiso   1.00
O684   O     0.64855   0.96739   0.30487   0.01267  Uiso   1.00
H685   H     0.13550   0.43160   0.26220   0.01267  Uiso   1.00
C686   C     0.12395   0.45697   0.31665   0.01267  Uiso   1.00
C687   C     0.10769   0.43144   0.30109   0.01267  Uiso   1.00
C688   C     0.11822   0.42162   0.27184   0.01267  Uiso   1.00
O689   O     0.11240   0.46715   0.34142   0.01267  Uiso   1.00
O690   O     0.14855   0.46739   0.30487   0.01267  Uiso   1.00
H691   H     0.13550   0.93160   0.76220   0.01267  Uiso   1.00
C692   C     0.12395   0.95697   0.81665   0.01267  Uiso   1.00
C693   C     0.10769   0.93144   0.80109   0.01267  Uiso   1.00
C694   C     0.11822   0.92162   0.77184   0.01267  Uiso   1.00
O695   O     0.11240   0.96715   0.84142   0.01267  Uiso   1.00
O696   O     0.14855   0.96739   0.80487   0.01267  Uiso   1.00
H697   H     0.63550   0.56840   0.23780   0.01267  Uiso   1.00
C698   C     0.62395   0.54303   0.18335   0.01267  Uiso   1.00
C699   C     0.60769   0.56856   0.19891   0.01267  Uiso   1.00
C700   C     0.61822   0.57838   0.22816   0.01267  Uiso   1.00
O701   O     0.61240   0.53285   0.15858   0.01267  Uiso   1.00
O702   O     0.64855   0.53261   0.19513   0.01267  Uiso   1.00
H703   H     0.63550   0.06840   0.73780   0.01267  Uiso   1.00
C704   C     0.62395   0.04303   0.68335   0.01267  Uiso   1.00
C705   C     0.60769   0.06856   0.69891   0.01267  Uiso   1.00
C706   C     0.61822   0.07838   0.72816   0.01267  Uiso   1.00
O707   O     0.61240   0.03285   0.65858   0.01267  Uiso   1.00
O708   O     0.64855   0.03261   0.69513   0.01267  Uiso   1.00
H709   H     0.13550   0.56840   0.73780   0.01267  Uiso   1.00
C710   C     0.12395   0.54303   0.68335   0.01267  Uiso   1.00
C711   C     0.10769   0.56856   0.69891   0.01267  Uiso   1.00
C712   C     0.11822   0.57838   0.72816   0.01267  Uiso   1.00
O713   O     0.11240   0.53285   0.65858   0.01267  Uiso   1.00
O714   O     0.14855   0.53261   0.69513   0.01267  Uiso   1.00
H715   H     0.13550   0.06840   0.23780   0.01267  Uiso   1.00
C716   C     0.12395   0.04303   0.18335   0.01267  Uiso   1.00
C717   C     0.10769   0.06856   0.19891   0.01267  Uiso   1.00
C718   C     0.11822   0.07838   0.22816   0.01267  Uiso   1.00
O719   O     0.11240   0.03285   0.15858   0.01267  Uiso   1.00
O720   O     0.14855   0.03261   0.19513   0.01267  Uiso   1.00
H721   H     0.36450   0.56840   0.76220   0.01267  Uiso   1.00
C722   C     0.37605   0.54303   0.81665   0.01267  Uiso   1.00
C723   C     0.39231   0.56856   0.80109   0.01267  Uiso   1.00
C724   C     0.38178   0.57838   0.77184   0.01267  Uiso   1.00
O725   O     0.38760   0.53285   0.84142   0.01267  Uiso   1.00
O726   O     0.35145   0.53261   0.80487   0.01267  Uiso   1.00
H727   H     0.36450   0.06840   0.26220   0.01267  Uiso   1.00
C728   C     0.37605   0.04303   0.31665   0.01267  Uiso   1.00
C729   C     0.39231   0.06856   0.30109   0.01267  Uiso   1.00
C730   C     0.38178   0.07838   0.27184   0.01267  Uiso   1.00
O731   O     0.38760   0.03285   0.34142   0.01267  Uiso   1.00
O732   O     0.35145   0.03261   0.30487   0.01267  Uiso   1.00
H733   H     0.86450   0.56840   0.26220   0.01267  Uiso   1.00
C734   C     0.87605   0.54303   0.31665   0.01267  Uiso   1.00
C735   C     0.89231   0.56856   0.30109   0.01267  Uiso   1.00
C736   C     0.88178   0.57838   0.27184   0.01267  Uiso   1.00
O737   O     0.88760   0.53285   0.34142   0.01267  Uiso   1.00
O738   O     0.85145   0.53261   0.30487   0.01267  Uiso   1.00
H739   H     0.86450   0.06840   0.76220   0.01267  Uiso   1.00
C740   C     0.87605   0.04303   0.81665   0.01267  Uiso   1.00
C741   C     0.89231   0.06856   0.80109   0.01267  Uiso   1.00
C742   C     0.88178   0.07838   0.77184   0.01267  Uiso   1.00
O743   O     0.88760   0.03285   0.84142   0.01267  Uiso   1.00
O744   O     0.85145   0.03261   0.80487   0.01267  Uiso   1.00
H745   H     0.36450   0.43160   0.23780   0.01267  Uiso   1.00
C746   C     0.37605   0.45697   0.18335   0.01267  Uiso   1.00
C747   C     0.39231   0.43144   0.19891   0.01267  Uiso   1.00
C748   C     0.38178   0.42162   0.22816   0.01267  Uiso   1.00
O749   O     0.38760   0.46715   0.15858   0.01267  Uiso   1.00
O750   O     0.35145   0.46739   0.19513   0.01267  Uiso   1.00
H751   H     0.36450   0.93160   0.73780   0.01267  Uiso   1.00
C752   C     0.37605   0.95697   0.68335   0.01267  Uiso   1.00
C753   C     0.39231   0.93144   0.69891   0.01267  Uiso   1.00
C754   C     0.38178   0.92162   0.72816   0.01267  Uiso   1.00
O755   O     0.38760   0.96715   0.65858   0.01267  Uiso   1.00
O756   O     0.35145   0.96739   0.69513   0.01267  Uiso   1.00
H757   H     0.86450   0.43160   0.73780   0.01267  Uiso   1.00
C758   C     0.87605   0.45697   0.68335   0.01267  Uiso   1.00
C759   C     0.89231   0.43144   0.69891   0.01267  Uiso   1.00
C760   C     0.88178   0.42162   0.72816   0.01267  Uiso   1.00
O761   O     0.88760   0.46715   0.65858   0.01267  Uiso   1.00
O762   O     0.85145   0.46739   0.69513   0.01267  Uiso   1.00
H763   H     0.86450   0.93160   0.23780   0.01267  Uiso   1.00
C764   C     0.87605   0.95697   0.18335   0.01267  Uiso   1.00
C765   C     0.89231   0.93144   0.19891   0.01267  Uiso   1.00
C766   C     0.88178   0.92162   0.22816   0.01267  Uiso   1.00
O767   O     0.88760   0.96715   0.15858   0.01267  Uiso   1.00
O768   O     0.85145   0.96739   0.19513   0.01267  Uiso   1.00
H769   H     0.76220   0.63550   0.43160   0.01267  Uiso   1.00
C770   C     0.81665   0.62395   0.45697   0.01267  Uiso   1.00
C771   C     0.80109   0.60769   0.43144   0.01267  Uiso   1.00
C772   C     0.77184   0.61822   0.42162   0.01267  Uiso   1.00
O773   O     0.84142   0.61240   0.46715   0.01267  Uiso   1.00
O774   O     0.80487   0.64855   0.46739   0.01267  Uiso   1.00
H775   H     0.76220   0.13550   0.93160   0.01267  Uiso   1.00
C776   C     0.81665   0.12395   0.95697   0.01267  Uiso   1.00
C777   C     0.80109   0.10769   0.93144   0.01267  Uiso   1.00
C778   C     0.77184   0.11822   0.92162   0.01267  Uiso   1.00
O779   O     0.84142   0.11240   0.96715   0.01267  Uiso   1.00
O780   O     0.80487   0.14855   0.96739   0.01267  Uiso   1.00
H781   H     0.26220   0.63550   0.93160   0.01267  Uiso   1.00
C782   C     0.31665   0.62395   0.95697   0.01267  Uiso   1.00
C783   C     0.30109   0.60769   0.93144   0.01267  Uiso   1.00
C784   C     0.27184   0.61822   0.92162   0.01267  Uiso   1.00
O785   O     0.34142   0.61240   0.96715   0.01267  Uiso   1.00
O786   O     0.30487   0.64855   0.96739   0.01267  Uiso   1.00
H787   H     0.26220   0.13550   0.43160   0.01267  Uiso   1.00
C788   C     0.31665   0.12395   0.45697   0.01267  Uiso   1.00
C789   C     0.30109   0.10769   0.43144   0.01267  Uiso   1.00
C790   C     0.27184   0.11822   0.42162   0.01267  Uiso   1.00
O791   O     0.34142   0.11240   0.46715   0.01267  Uiso   1.00
O792   O     0.30487   0.14855   0.46739   0.01267  Uiso   1.00
H793   H     0.23780   0.63550   0.56840   0.01267  Uiso   1.00
C794   C     0.18335   0.62395   0.54303   0.01267  Uiso   1.00
C795   C     0.19891   0.60769   0.56856   0.01267  Uiso   1.00
C796   C     0.22816   0.61822   0.57838   0.01267  Uiso   1.00
O797   O     0.15858   0.61240   0.53285   0.01267  Uiso   1.00
O798   O     0.19513   0.64855   0.53261   0.01267  Uiso   1.00
H799   H     0.23780   0.13550   0.06840   0.01267  Uiso   1.00
C800   C     0.18335   0.12395   0.04303   0.01267  Uiso   1.00
C801   C     0.19891   0.10769   0.06856   0.01267  Uiso   1.00
C802   C     0.22816   0.11822   0.07838   0.01267  Uiso   1.00
O803   O     0.15858   0.11240   0.03285   0.01267  Uiso   1.00
O804   O     0.19513   0.14855   0.03261   0.01267  Uiso   1.00
H805   H     0.73780   0.63550   0.06840   0.01267  Uiso   1.00
C806   C     0.68335   0.62395   0.04303   0.01267  Uiso   1.00
C807   C     0.69891   0.60769   0.06856   0.01267  Uiso   1.00
C808   C     0.72816   0.61822   0.07838   0.01267  Uiso   1.00
O809   O     0.65858   0.61240   0.03285   0.01267  Uiso   1.00
O810   O     0.69513   0.64855   0.03261   0.01267  Uiso   1.00
H811   H     0.73780   0.13550   0.56840   0.01267  Uiso   1.00
C812   C     0.68335   0.12395   0.54303   0.01267  Uiso   1.00
C813   C     0.69891   0.10769   0.56856   0.01267  Uiso   1.00
C814   C     0.72816   0.11822   0.57838   0.01267  Uiso   1.00
O815   O     0.65858   0.11240   0.53285   0.01267  Uiso   1.00
O816   O     0.69513   0.14855   0.53261   0.01267  Uiso   1.00
H817   H     0.76220   0.36450   0.56840   0.01267  Uiso   1.00
C818   C     0.81665   0.37605   0.54303   0.01267  Uiso   1.00
C819   C     0.80109   0.39231   0.56856   0.01267  Uiso   1.00
C820   C     0.77184   0.38178   0.57838   0.01267  Uiso   1.00
O821   O     0.84142   0.38760   0.53285   0.01267  Uiso   1.00
O822   O     0.80487   0.35145   0.53261   0.01267  Uiso   1.00
H823   H     0.76220   0.86450   0.06840   0.01267  Uiso   1.00
C824   C     0.81665   0.87605   0.04303   0.01267  Uiso   1.00
C825   C     0.80109   0.89231   0.06856   0.01267  Uiso   1.00
C826   C     0.77184   0.88178   0.07838   0.01267  Uiso   1.00
O827   O     0.84142   0.88760   0.03285   0.01267  Uiso   1.00
O828   O     0.80487   0.85145   0.03261   0.01267  Uiso   1.00
H829   H     0.26220   0.36450   0.06840   0.01267  Uiso   1.00
C830   C     0.31665   0.37605   0.04303   0.01267  Uiso   1.00
C831   C     0.30109   0.39231   0.06856   0.01267  Uiso   1.00
C832   C     0.27184   0.38178   0.07838   0.01267  Uiso   1.00
O833   O     0.34142   0.38760   0.03285   0.01267  Uiso   1.00
O834   O     0.30487   0.35145   0.03261   0.01267  Uiso   1.00
H835   H     0.26220   0.86450   0.56840   0.01267  Uiso   1.00
C836   C     0.31665   0.87605   0.54303   0.01267  Uiso   1.00
C837   C     0.30109   0.89231   0.56856   0.01267  Uiso   1.00
C838   C     0.27184   0.88178   0.57838   0.01267  Uiso   1.00
O839   O     0.34142   0.88760   0.53285   0.01267  Uiso   1.00
O840   O     0.30487   0.85145   0.53261   0.01267  Uiso   1.00
H841   H     0.23780   0.36450   0.43160   0.01267  Uiso   1.00
C842   C     0.18335   0.37605   0.45697   0.01267  Uiso   1.00
C843   C     0.19891   0.39231   0.43144   0.01267  Uiso   1.00
C844   C     0.22816   0.38178   0.42162   0.01267  Uiso   1.00
O845   O     0.15858   0.38760   0.46715   0.01267  Uiso   1.00
O846   O     0.19513   0.35145   0.46739   0.01267  Uiso   1.00
H847   H     0.23780   0.86450   0.93160   0.01267  Uiso   1.00
C848   C     0.18335   0.87605   0.95697   0.01267  Uiso   1.00
C849   C     0.19891   0.89231   0.93144   0.01267  Uiso   1.00
C850   C     0.22816   0.88178   0.92162   0.01267  Uiso   1.00
O851   O     0.15858   0.88760   0.96715   0.01267  Uiso   1.00
O852   O     0.19513   0.85145   0.96739   0.01267  Uiso   1.00
H853   H     0.73780   0.36450   0.93160   0.01267  Uiso   1.00
C854   C     0.68335   0.37605   0.95697   0.01267  Uiso   1.00
C855   C     0.69891   0.39231   0.93144   0.01267  Uiso   1.00
C856   C     0.72816   0.38178   0.92162   0.01267  Uiso   1.00
O857   O     0.65858   0.38760   0.96715   0.01267  Uiso   1.00
O858   O     0.69513   0.35145   0.96739   0.01267  Uiso   1.00
H859   H     0.73780   0.86450   0.43160   0.01267  Uiso   1.00
C860   C     0.68335   0.87605   0.45697   0.01267  Uiso   1.00
C861   C     0.69891   0.89231   0.43144   0.01267  Uiso   1.00
C862   C     0.72816   0.88178   0.42162   0.01267  Uiso   1.00
O863   O     0.65858   0.88760   0.46715   0.01267  Uiso   1.00
O864   O     0.69513   0.85145   0.46739   0.01267  Uiso   1.00
H865   H     0.76220   0.43160   0.36450   0.01267  Uiso   1.00
C866   C     0.81665   0.45697   0.37605   0.01267  Uiso   1.00
C867   C     0.80109   0.43144   0.39231   0.01267  Uiso   1.00
C868   C     0.77184   0.42162   0.38178   0.01267  Uiso   1.00
O869   O     0.84142   0.46715   0.38760   0.01267  Uiso   1.00
O870   O     0.80487   0.46739   0.35145   0.01267  Uiso   1.00
H871   H     0.76220   0.93160   0.86450   0.01267  Uiso   1.00
C872   C     0.81665   0.95697   0.87605   0.01267  Uiso   1.00
C873   C     0.80109   0.93144   0.89231   0.01267  Uiso   1.00
C874   C     0.77184   0.92162   0.88178   0.01267  Uiso   1.00
O875   O     0.84142   0.96715   0.88760   0.01267  Uiso   1.00
O876   O     0.80487   0.96739   0.85145   0.01267  Uiso   1.00
H877   H     0.26220   0.43160   0.86450   0.01267  Uiso   1.00
C878   C     0.31665   0.45697   0.87605   0.01267  Uiso   1.00
C879   C     0.30109   0.43144   0.89231   0.01267  Uiso   1.00
C880   C     0.27184   0.42162   0.88178   0.01267  Uiso   1.00
O881   O     0.34142   0.46715   0.88760   0.01267  Uiso   1.00
O882   O     0.30487   0.46739   0.85145   0.01267  Uiso   1.00
H883   H     0.26220   0.93160   0.36450   0.01267  Uiso   1.00
C884   C     0.31665   0.95697   0.37605   0.01267  Uiso   1.00
C885   C     0.30109   0.93144   0.39231   0.01267  Uiso   1.00
C886   C     0.27184   0.92162   0.38178   0.01267  Uiso   1.00
O887   O     0.34142   0.96715   0.38760   0.01267  Uiso   1.00
O888   O     0.30487   0.96739   0.35145   0.01267  Uiso   1.00
H889   H     0.23780   0.56840   0.36450   0.01267  Uiso   1.00
C890   C     0.18335   0.54303   0.37605   0.01267  Uiso   1.00
C891   C     0.19891   0.56856   0.39231   0.01267  Uiso   1.00
C892   C     0.22816   0.57838   0.38178   0.01267  Uiso   1.00
O893   O     0.15858   0.53285   0.38760   0.01267  Uiso   1.00
O894   O     0.19513   0.53261   0.35145   0.01267  Uiso   1.00
H895   H     0.23780   0.06840   0.86450   0.01267  Uiso   1.00
C896   C     0.18335   0.04303   0.87605   0.01267  Uiso   1.00
C897   C     0.19891   0.06856   0.89231   0.01267  Uiso   1.00
C898   C     0.22816   0.07838   0.88178   0.01267  Uiso   1.00
O899   O     0.15858   0.03285   0.88760   0.01267  Uiso   1.00
O900   O     0.19513   0.03261   0.85145   0.01267  Uiso   1.00
H901   H     0.73780   0.56840   0.86450   0.01267  Uiso   1.00
C902   C     0.68335   0.54303   0.87605   0.01267  Uiso   1.00
C903   C     0.69891   0.56856   0.89231   0.01267  Uiso   1.00
C904   C     0.72816   0.57838   0.88178   0.01267  Uiso   1.00
O905   O     0.65858   0.53285   0.88760   0.01267  Uiso   1.00
O906   O     0.69513   0.53261   0.85145   0.01267  Uiso   1.00
H907   H     0.73780   0.06840   0.36450   0.01267  Uiso   1.00
C908   C     0.68335   0.04303   0.37605   0.01267  Uiso   1.00
C909   C     0.69891   0.06856   0.39231   0.01267  Uiso   1.00
C910   C     0.72816   0.07838   0.38178   0.01267  Uiso   1.00
O911   O     0.65858   0.03285   0.38760   0.01267  Uiso   1.00
O912   O     0.69513   0.03261   0.35145   0.01267  Uiso   1.00
H913   H     0.76220   0.56840   0.63550   0.01267  Uiso   1.00
C914   C     0.81665   0.54303   0.62395   0.01267  Uiso   1.00
C915   C     0.80109   0.56856   0.60769   0.01267  Uiso   1.00
C916   C     0.77184   0.57838   0.61822   0.01267  Uiso   1.00
O917   O     0.84142   0.53285   0.61240   0.01267  Uiso   1.00
O918   O     0.80487   0.53261   0.64855   0.01267  Uiso   1.00
H919   H     0.76220   0.06840   0.13550   0.01267  Uiso   1.00
C920   C     0.81665   0.04303   0.12395   0.01267  Uiso   1.00
C921   C     0.80109   0.06856   0.10769   0.01267  Uiso   1.00
C922   C     0.77184   0.07838   0.11822   0.01267  Uiso   1.00
O923   O     0.84142   0.03285   0.11240   0.01267  Uiso   1.00
O924   O     0.80487   0.03261   0.14855   0.01267  Uiso   1.00
H925   H     0.26220   0.56840   0.13550   0.01267  Uiso   1.00
C926   C     0.31665   0.54303   0.12395   0.01267  Uiso   1.00
C927   C     0.30109   0.56856   0.10769   0.01267  Uiso   1.00
C928   C     0.27184   0.57838   0.11822   0.01267  Uiso   1.00
O929   O     0.34142   0.53285   0.11240   0.01267  Uiso   1.00
O930   O     0.30487   0.53261   0.14855   0.01267  Uiso   1.00
H931   H     0.26220   0.06840   0.63550   0.01267  Uiso   1.00
C932   C     0.31665   0.04303   0.62395   0.01267  Uiso   1.00
C933   C     0.30109   0.06856   0.60769   0.01267  Uiso   1.00
C934   C     0.27184   0.07838   0.61822   0.01267  Uiso   1.00
O935   O     0.34142   0.03285   0.61240   0.01267  Uiso   1.00
O936   O     0.30487   0.03261   0.64855   0.01267  Uiso   1.00
H937   H     0.23780   0.43160   0.63550   0.01267  Uiso   1.00
C938   C     0.18335   0.45697   0.62395   0.01267  Uiso   1.00
C939   C     0.19891   0.43144   0.60769   0.01267  Uiso   1.00
C940   C     0.22816   0.42162   0.61822   0.01267  Uiso   1.00
O941   O     0.15858   0.46715   0.61240   0.01267  Uiso   1.00
O942   O     0.19513   0.46739   0.64855   0.01267  Uiso   1.00
H943   H     0.23780   0.93160   0.13550   0.01267  Uiso   1.00
C944   C     0.18335   0.95697   0.12395   0.01267  Uiso   1.00
C945   C     0.19891   0.93144   0.10769   0.01267  Uiso   1.00
C946   C     0.22816   0.92162   0.11822   0.01267  Uiso   1.00
O947   O     0.15858   0.96715   0.11240   0.01267  Uiso   1.00
O948   O     0.19513   0.96739   0.14855   0.01267  Uiso   1.00
H949   H     0.73780   0.43160   0.13550   0.01267  Uiso   1.00
C950   C     0.68335   0.45697   0.12395   0.01267  Uiso   1.00
C951   C     0.69891   0.43144   0.10769   0.01267  Uiso   1.00
C952   C     0.72816   0.42162   0.11822   0.01267  Uiso   1.00
O953   O     0.65858   0.46715   0.11240   0.01267  Uiso   1.00
O954   O     0.69513   0.46739   0.14855   0.01267  Uiso   1.00
H955   H     0.73780   0.93160   0.63550   0.01267  Uiso   1.00
C956   C     0.68335   0.95697   0.62395   0.01267  Uiso   1.00
C957   C     0.69891   0.93144   0.60769   0.01267  Uiso   1.00
C958   C     0.72816   0.92162   0.61822   0.01267  Uiso   1.00
O959   O     0.65858   0.96715   0.61240   0.01267  Uiso   1.00
O960   O     0.69513   0.96739   0.64855   0.01267  Uiso   1.00
H961   H     0.43160   0.63550   0.23780   0.01267  Uiso   1.00
C962   C     0.45697   0.62395   0.18335   0.01267  Uiso   1.00
C963   C     0.43144   0.60769   0.19891   0.01267  Uiso   1.00
C964   C     0.42162   0.61822   0.22816   0.01267  Uiso   1.00
O965   O     0.46715   0.61240   0.15858   0.01267  Uiso   1.00
O966   O     0.46739   0.64855   0.19513   0.01267  Uiso   1.00
H967   H     0.43160   0.13550   0.73780   0.01267  Uiso   1.00
C968   C     0.45697   0.12395   0.68335   0.01267  Uiso   1.00
C969   C     0.43144   0.10769   0.69891   0.01267  Uiso   1.00
C970   C     0.42162   0.11822   0.72816   0.01267  Uiso   1.00
O971   O     0.46715   0.11240   0.65858   0.01267  Uiso   1.00
O972   O     0.46739   0.14855   0.69513   0.01267  Uiso   1.00
H973   H     0.93160   0.63550   0.73780   0.01267  Uiso   1.00
C974   C     0.95697   0.62395   0.68335   0.01267  Uiso   1.00
C975   C     0.93144   0.60769   0.69891   0.01267  Uiso   1.00
C976   C     0.92162   0.61822   0.72816   0.01267  Uiso   1.00
O977   O     0.96715   0.61240   0.65858   0.01267  Uiso   1.00
O978   O     0.96739   0.64855   0.69513   0.01267  Uiso   1.00
H979   H     0.93160   0.13550   0.23780   0.01267  Uiso   1.00
C980   C     0.95697   0.12395   0.18335   0.01267  Uiso   1.00
C981   C     0.93144   0.10769   0.19891   0.01267  Uiso   1.00
C982   C     0.92162   0.11822   0.22816   0.01267  Uiso   1.00
O983   O     0.96715   0.11240   0.15858   0.01267  Uiso   1.00
O984   O     0.96739   0.14855   0.19513   0.01267  Uiso   1.00
H985   H     0.56840   0.63550   0.76220   0.01267  Uiso   1.00
C986   C     0.54303   0.62395   0.81665   0.01267  Uiso   1.00
C987   C     0.56856   0.60769   0.80109   0.01267  Uiso   1.00
C988   C     0.57838   0.61822   0.77184   0.01267  Uiso   1.00
O989   O     0.53285   0.61240   0.84142   0.01267  Uiso   1.00
O990   O     0.53261   0.64855   0.80487   0.01267  Uiso   1.00
H991   H     0.56840   0.13550   0.26220   0.01267  Uiso   1.00
C992   C     0.54303   0.12395   0.31665   0.01267  Uiso   1.00
C993   C     0.56856   0.10769   0.30109   0.01267  Uiso   1.00
C994   C     0.57838   0.11822   0.27184   0.01267  Uiso   1.00
O995   O     0.53285   0.11240   0.34142   0.01267  Uiso   1.00
O996   O     0.53261   0.14855   0.30487   0.01267  Uiso   1.00
H997   H     0.06840   0.63550   0.26220   0.01267  Uiso   1.00
C998   C     0.04303   0.62395   0.31665   0.01267  Uiso   1.00
C999   C     0.06856   0.60769   0.30109   0.01267  Uiso   1.00
C1000  C     0.07838   0.61822   0.27184   0.01267  Uiso   1.00
O1001  O     0.03285   0.61240   0.34142   0.01267  Uiso   1.00
O1002  O     0.03261   0.64855   0.30487   0.01267  Uiso   1.00
H1003  H     0.06840   0.13550   0.76220   0.01267  Uiso   1.00
C1004  C     0.04303   0.12395   0.81665   0.01267  Uiso   1.00
C1005  C     0.06856   0.10769   0.80109   0.01267  Uiso   1.00
C1006  C     0.07838   0.11822   0.77184   0.01267  Uiso   1.00
O1007  O     0.03285   0.11240   0.84142   0.01267  Uiso   1.00
O1008  O     0.03261   0.14855   0.80487   0.01267  Uiso   1.00
H1009  H     0.56840   0.36450   0.23780   0.01267  Uiso   1.00
C1010  C     0.54303   0.37605   0.18335   0.01267  Uiso   1.00
C1011  C     0.56856   0.39231   0.19891   0.01267  Uiso   1.00
C1012  C     0.57838   0.38178   0.22816   0.01267  Uiso   1.00
O1013  O     0.53285   0.38760   0.15858   0.01267  Uiso   1.00
O1014  O     0.53261   0.35145   0.19513   0.01267  Uiso   1.00
H1015  H     0.56840   0.86450   0.73780   0.01267  Uiso   1.00
C1016  C     0.54303   0.87605   0.68335   0.01267  Uiso   1.00
C1017  C     0.56856   0.89231   0.69891   0.01267  Uiso   1.00
C1018  C     0.57838   0.88178   0.72816   0.01267  Uiso   1.00
O1019  O     0.53285   0.88760   0.65858   0.01267  Uiso   1.00
O1020  O     0.53261   0.85145   0.69513   0.01267  Uiso   1.00
H1021  H     0.06840   0.36450   0.73780   0.01267  Uiso   1.00
C1022  C     0.04303   0.37605   0.68335   0.01267  Uiso   1.00
C1023  C     0.06856   0.39231   0.69891   0.01267  Uiso   1.00
C1024  C     0.07838   0.38178   0.72816   0.01267  Uiso   1.00
O1025  O     0.03285   0.38760   0.65858   0.01267  Uiso   1.00
O1026  O     0.03261   0.35145   0.69513   0.01267  Uiso   1.00
H1027  H     0.06840   0.86450   0.23780   0.01267  Uiso   1.00
C1028  C     0.04303   0.87605   0.18335   0.01267  Uiso   1.00
C1029  C     0.06856   0.89231   0.19891   0.01267  Uiso   1.00
C1030  C     0.07838   0.88178   0.22816   0.01267  Uiso   1.00
O1031  O     0.03285   0.88760   0.15858   0.01267  Uiso   1.00
O1032  O     0.03261   0.85145   0.19513   0.01267  Uiso   1.00
H1033  H     0.43160   0.36450   0.76220   0.01267  Uiso   1.00
C1034  C     0.45697   0.37605   0.81665   0.01267  Uiso   1.00
C1035  C     0.43144   0.39231   0.80109   0.01267  Uiso   1.00
C1036  C     0.42162   0.38178   0.77184   0.01267  Uiso   1.00
O1037  O     0.46715   0.38760   0.84142   0.01267  Uiso   1.00
O1038  O     0.46739   0.35145   0.80487   0.01267  Uiso   1.00
H1039  H     0.43160   0.86450   0.26220   0.01267  Uiso   1.00
C1040  C     0.45697   0.87605   0.31665   0.01267  Uiso   1.00
C1041  C     0.43144   0.89231   0.30109   0.01267  Uiso   1.00
C1042  C     0.42162   0.88178   0.27184   0.01267  Uiso   1.00
O1043  O     0.46715   0.88760   0.34142   0.01267  Uiso   1.00
O1044  O     0.46739   0.85145   0.30487   0.01267  Uiso   1.00
H1045  H     0.93160   0.36450   0.26220   0.01267  Uiso   1.00
C1046  C     0.95697   0.37605   0.31665   0.01267  Uiso   1.00
C1047  C     0.93144   0.39231   0.30109   0.01267  Uiso   1.00
C1048  C     0.92162   0.38178   0.27184   0.01267  Uiso   1.00
O1049  O     0.96715   0.38760   0.34142   0.01267  Uiso   1.00
O1050  O     0.96739   0.35145   0.30487   0.01267  Uiso   1.00
H1051  H     0.93160   0.86450   0.76220   0.01267  Uiso   1.00
C1052  C     0.95697   0.87605   0.81665   0.01267  Uiso   1.00
C1053  C     0.93144   0.89231   0.80109   0.01267  Uiso   1.00
C1054  C     0.92162   0.88178   0.77184   0.01267  Uiso   1.00
O1055  O     0.96715   0.88760   0.84142   0.01267  Uiso   1.00
O1056  O     0.96739   0.85145   0.80487   0.01267  Uiso   1.00
H1057  H     0.63550   0.76220   0.56840   0.01267  Uiso   1.00
C1058  C     0.62395   0.81665   0.54303   0.01267  Uiso   1.00
C1059  C     0.60769   0.80109   0.56856   0.01267  Uiso   1.00
C1060  C     0.61822   0.77184   0.57838   0.01267  Uiso   1.00
O1061  O     0.61240   0.84142   0.53285   0.01267  Uiso   1.00
O1062  O     0.64855   0.80487   0.53261   0.01267  Uiso   1.00
H1063  H     0.63550   0.26220   0.06840   0.01267  Uiso   1.00
C1064  C     0.62395   0.31665   0.04303   0.01267  Uiso   1.00
C1065  C     0.60769   0.30109   0.06856   0.01267  Uiso   1.00
C1066  C     0.61822   0.27184   0.07838   0.01267  Uiso   1.00
O1067  O     0.61240   0.34142   0.03285   0.01267  Uiso   1.00
O1068  O     0.64855   0.30487   0.03261   0.01267  Uiso   1.00
H1069  H     0.13550   0.76220   0.06840   0.01267  Uiso   1.00
C1070  C     0.12395   0.81665   0.04303   0.01267  Uiso   1.00
C1071  C     0.10769   0.80109   0.06856   0.01267  Uiso   1.00
C1072  C     0.11822   0.77184   0.07838   0.01267  Uiso   1.00
O1073  O     0.11240   0.84142   0.03285   0.01267  Uiso   1.00
O1074  O     0.14855   0.80487   0.03261   0.01267  Uiso   1.00
H1075  H     0.13550   0.26220   0.56840   0.01267  Uiso   1.00
C1076  C     0.12395   0.31665   0.54303   0.01267  Uiso   1.00
C1077  C     0.10769   0.30109   0.56856   0.01267  Uiso   1.00
C1078  C     0.11822   0.27184   0.57838   0.01267  Uiso   1.00
O1079  O     0.11240   0.34142   0.53285   0.01267  Uiso   1.00
O1080  O     0.14855   0.30487   0.53261   0.01267  Uiso   1.00
H1081  H     0.63550   0.23780   0.43160   0.01267  Uiso   1.00
C1082  C     0.62395   0.18335   0.45697   0.01267  Uiso   1.00
C1083  C     0.60769   0.19891   0.43144   0.01267  Uiso   1.00
C1084  C     0.61822   0.22816   0.42162   0.01267  Uiso   1.00
O1085  O     0.61240   0.15858   0.46715   0.01267  Uiso   1.00
O1086  O     0.64855   0.19513   0.46739   0.01267  Uiso   1.00
H1087  H     0.63550   0.73780   0.93160   0.01267  Uiso   1.00
C1088  C     0.62395   0.68335   0.95697   0.01267  Uiso   1.00
C1089  C     0.60769   0.69891   0.93144   0.01267  Uiso   1.00
C1090  C     0.61822   0.72816   0.92162   0.01267  Uiso   1.00
O1091  O     0.61240   0.65858   0.96715   0.01267  Uiso   1.00
O1092  O     0.64855   0.69513   0.96739   0.01267  Uiso   1.00
H1093  H     0.13550   0.23780   0.93160   0.01267  Uiso   1.00
C1094  C     0.12395   0.18335   0.95697   0.01267  Uiso   1.00
C1095  C     0.10769   0.19891   0.93144   0.01267  Uiso   1.00
C1096  C     0.11822   0.22816   0.92162   0.01267  Uiso   1.00
O1097  O     0.11240   0.15858   0.96715   0.01267  Uiso   1.00
O1098  O     0.14855   0.19513   0.96739   0.01267  Uiso   1.00
H1099  H     0.13550   0.73780   0.43160   0.01267  Uiso   1.00
C1100  C     0.12395   0.68335   0.45697   0.01267  Uiso   1.00
C1101  C     0.10769   0.69891   0.43144   0.01267  Uiso   1.00
C1102  C     0.11822   0.72816   0.42162   0.01267  Uiso   1.00
O1103  O     0.11240   0.65858   0.46715   0.01267  Uiso   1.00
O1104  O     0.14855   0.69513   0.46739   0.01267  Uiso   1.00
H1105  H     0.36450   0.76220   0.43160   0.01267  Uiso   1.00
C1106  C     0.37605   0.81665   0.45697   0.01267  Uiso   1.00
C1107  C     0.39231   0.80109   0.43144   0.01267  Uiso   1.00
C1108  C     0.38178   0.77184   0.42162   0.01267  Uiso   1.00
O1109  O     0.38760   0.84142   0.46715   0.01267  Uiso   1.00
O1110  O     0.35145   0.80487   0.46739   0.01267  Uiso   1.00
H1111  H     0.36450   0.26220   0.93160   0.01267  Uiso   1.00
C1112  C     0.37605   0.31665   0.95697   0.01267  Uiso   1.00
C1113  C     0.39231   0.30109   0.93144   0.01267  Uiso   1.00
C1114  C     0.38178   0.27184   0.92162   0.01267  Uiso   1.00
O1115  O     0.38760   0.34142   0.96715   0.01267  Uiso   1.00
O1116  O     0.35145   0.30487   0.96739   0.01267  Uiso   1.00
H1117  H     0.86450   0.76220   0.93160   0.01267  Uiso   1.00
C1118  C     0.87605   0.81665   0.95697   0.01267  Uiso   1.00
C1119  C     0.89231   0.80109   0.93144   0.01267  Uiso   1.00
C1120  C     0.88178   0.77184   0.92162   0.01267  Uiso   1.00
O1121  O     0.88760   0.84142   0.96715   0.01267  Uiso   1.00
O1122  O     0.85145   0.80487   0.96739   0.01267  Uiso   1.00
H1123  H     0.86450   0.26220   0.43160   0.01267  Uiso   1.00
C1124  C     0.87605   0.31665   0.45697   0.01267  Uiso   1.00
C1125  C     0.89231   0.30109   0.43144   0.01267  Uiso   1.00
C1126  C     0.88178   0.27184   0.42162   0.01267  Uiso   1.00
O1127  O     0.88760   0.34142   0.46715   0.01267  Uiso   1.00
O1128  O     0.85145   0.30487   0.46739   0.01267  Uiso   1.00
H1129  H     0.36450   0.23780   0.56840   0.01267  Uiso   1.00
C1130  C     0.37605   0.18335   0.54303   0.01267  Uiso   1.00
C1131  C     0.39231   0.19891   0.56856   0.01267  Uiso   1.00
C1132  C     0.38178   0.22816   0.57838   0.01267  Uiso   1.00
O1133  O     0.38760   0.15858   0.53285   0.01267  Uiso   1.00
O1134  O     0.35145   0.19513   0.53261   0.01267  Uiso   1.00
H1135  H     0.36450   0.73780   0.06840   0.01267  Uiso   1.00
C1136  C     0.37605   0.68335   0.04303   0.01267  Uiso   1.00
C1137  C     0.39231   0.69891   0.06856   0.01267  Uiso   1.00
C1138  C     0.38178   0.72816   0.07838   0.01267  Uiso   1.00
O1139  O     0.38760   0.65858   0.03285   0.01267  Uiso   1.00
O1140  O     0.35145   0.69513   0.03261   0.01267  Uiso   1.00
H1141  H     0.86450   0.23780   0.06840   0.01267  Uiso   1.00
C1142  C     0.87605   0.18335   0.04303   0.01267  Uiso   1.00
C1143  C     0.89231   0.19891   0.06856   0.01267  Uiso   1.00
C1144  C     0.88178   0.22816   0.07838   0.01267  Uiso   1.00
O1145  O     0.88760   0.15858   0.03285   0.01267  Uiso   1.00
O1146  O     0.85145   0.19513   0.03261   0.01267  Uiso   1.00
H1147  H     0.86450   0.73780   0.56840   0.01267  Uiso   1.00
C1148  C     0.87605   0.68335   0.54303   0.01267  Uiso   1.00
C1149  C     0.89231   0.69891   0.56856   0.01267  Uiso   1.00
C1150  C     0.88178   0.72816   0.57838   0.01267  Uiso   1.00
O1151  O     0.88760   0.65858   0.53285   0.01267  Uiso   1.00
O1152  O     0.85145   0.69513   0.53261   0.01267  Uiso   1.00
Zn1153 Zn   -0.00000   0.62886   0.37114   0.01267  Uiso   1.00
Zn1154 Zn   -0.00000   0.67889   0.32111   0.01267  Uiso   1.00
Zn1155 Zn   -0.00000   0.12886   0.87114   0.01267  Uiso   1.00
Zn1156 Zn   -0.00000   0.17889   0.82111   0.01267  Uiso   1.00
Zn1157 Zn    0.50000   0.62886   0.87114   0.01267  Uiso   1.00
Zn1158 Zn    0.50000   0.67889   0.82111   0.01267  Uiso   1.00
Zn1159 Zn    0.50000   0.12886   0.37114   0.01267  Uiso   1.00
Zn1160 Zn    0.50000   0.17889   0.32111   0.01267  Uiso   1.00
Zn1161 Zn   -0.00000   0.37114   0.37114   0.01267  Uiso   1.00
Zn1162 Zn   -0.00000   0.32111   0.32111   0.01267  Uiso   1.00
Zn1163 Zn   -0.00000   0.87114   0.87114   0.01267  Uiso   1.00
Zn1164 Zn   -0.00000   0.82111   0.82111   0.01267  Uiso   1.00
Zn1165 Zn    0.50000   0.37114   0.87114   0.01267  Uiso   1.00
Zn1166 Zn    0.50000   0.32111   0.82111   0.01267  Uiso   1.00
Zn1167 Zn    0.50000   0.87114   0.37114   0.01267  Uiso   1.00
Zn1168 Zn    0.50000   0.82111   0.32111   0.01267  Uiso   1.00
Zn1169 Zn   -0.00000   0.62886   0.62886   0.01267  Uiso   1.00
Zn1170 Zn    0.00000   0.67889   0.67889   0.01267  Uiso   1.00
Zn1171 Zn   -0.00000   0.12886   0.12886   0.01267  Uiso   1.00
Zn1172 Zn   -0.00000   0.17889   0.17889   0.01267  Uiso   1.00
Zn1173 Zn    0.50000   0.62886   0.12886   0.01267  Uiso   1.00
Zn1174 Zn    0.50000   0.67889   0.17889   0.01267  Uiso   1.00
Zn1175 Zn    0.50000   0.12886   0.62886   0.01267  Uiso   1.00
Zn1176 Zn    0.50000   0.17889   0.67889   0.01267  Uiso   1.00
Zn1177 Zn   -0.00000   0.37114   0.62886   0.01267  Uiso   1.00
Zn1178 Zn    0.00000   0.32111   0.67889   0.01267  Uiso   1.00
Zn1179 Zn    0.00000   0.87114   0.12886   0.01267  Uiso   1.00
Zn1180 Zn   -0.00000   0.82111   0.17889   0.01267  Uiso   1.00
Zn1181 Zn    0.50000   0.37114   0.12886   0.01267  Uiso   1.00
Zn1182 Zn    0.50000   0.32111   0.17889   0.01267  Uiso   1.00
Zn1183 Zn    0.50000   0.87114   0.62886   0.01267  Uiso   1.00
Zn1184 Zn    0.50000   0.82111   0.67889   0.01267  Uiso   1.00
Zn1185 Zn    0.37114   0.00000   0.62886   0.01267  Uiso   1.00
Zn1186 Zn    0.32111   0.00000   0.67889   0.01267  Uiso   1.00
Zn1187 Zn    0.37114   0.50000   0.12886   0.01267  Uiso   1.00
Zn1188 Zn    0.32111   0.50000   0.17889   0.01267  Uiso   1.00
Zn1189 Zn    0.87114   0.00000   0.12886   0.01267  Uiso   1.00
Zn1190 Zn    0.82111   0.00000   0.17889   0.01267  Uiso   1.00
Zn1191 Zn    0.87114   0.50000   0.62886   0.01267  Uiso   1.00
Zn1192 Zn    0.82111   0.50000   0.67889   0.01267  Uiso   1.00
Zn1193 Zn    0.37114  -0.00000   0.37114   0.01267  Uiso   1.00
Zn1194 Zn    0.32111  -0.00000   0.32111   0.01267  Uiso   1.00
Zn1195 Zn    0.37114   0.50000   0.87114   0.01267  Uiso   1.00
Zn1196 Zn    0.32111   0.50000   0.82111   0.01267  Uiso   1.00
Zn1197 Zn    0.87114  -0.00000   0.87114   0.01267  Uiso   1.00
Zn1198 Zn    0.82111   0.00000   0.82111   0.01267  Uiso   1.00
Zn1199 Zn    0.87114   0.50000   0.37114   0.01267  Uiso   1.00
Zn1200 Zn    0.82111   0.50000   0.32111   0.01267  Uiso   1.00
Zn1201 Zn    0.62886  -0.00000   0.62886   0.01267  Uiso   1.00
Zn1202 Zn    0.67889  -0.00000   0.67889   0.01267  Uiso   1.00
Zn1203 Zn    0.62886   0.50000   0.12886   0.01267  Uiso   1.00
Zn1204 Zn    0.67889   0.50000   0.17889   0.01267  Uiso   1.00
Zn1205 Zn    0.12886  -0.00000   0.12886   0.01267  Uiso   1.00
Zn1206 Zn    0.17889  -0.00000   0.17889   0.01267  Uiso   1.00
Zn1207 Zn    0.12886   0.50000   0.62886   0.01267  Uiso   1.00
Zn1208 Zn    0.17889   0.50000   0.67889   0.01267  Uiso   1.00
Zn1209 Zn    0.62886   0.00000   0.37114   0.01267  Uiso   1.00
Zn1210 Zn    0.67889   0.00000   0.32111   0.01267  Uiso   1.00
Zn1211 Zn    0.62886   0.50000   0.87114   0.01267  Uiso   1.00
Zn1212 Zn    0.67889   0.50000   0.82111   0.01267  Uiso   1.00
Zn1213 Zn    0.12886   0.00000   0.87114   0.01267  Uiso   1.00
Zn1214 Zn    0.17889   0.00000   0.82111   0.01267  Uiso   1.00
Zn1215 Zn    0.12886   0.50000   0.37114   0.01267  Uiso   1.00
Zn1216 Zn    0.17889   0.50000   0.32111   0.01267  Uiso   1.00
Zn1217 Zn    0.62886   0.37114  -0.00000   0.01267  Uiso   1.00
Zn1218 Zn    0.67889   0.32111   0.00000   0.01267  Uiso   1.00
Zn1219 Zn    0.62886   0.87114   0.50000   0.01267  Uiso   1.00
Zn1220 Zn    0.67889   0.82111   0.50000   0.01267  Uiso   1.00
Zn1221 Zn    0.12886   0.37114   0.50000   0.01267  Uiso   1.00
Zn1222 Zn    0.17889   0.32111   0.50000   0.01267  Uiso   1.00
Zn1223 Zn    0.12886   0.87114   0.00000   0.01267  Uiso   1.00
Zn1224 Zn    0.17889   0.82111   0.00000   0.01267  Uiso   1.00
Zn1225 Zn    0.37114   0.37114  -0.00000   0.01267  Uiso   1.00
Zn1226 Zn    0.32111   0.32111  -0.00000   0.01267  Uiso   1.00
Zn1227 Zn    0.37114   0.87114   0.50000   0.01267  Uiso   1.00
Zn1228 Zn    0.32111   0.82111   0.50000   0.01267  Uiso   1.00
Zn1229 Zn    0.87114   0.37114   0.50000   0.01267  Uiso   1.00
Zn1230 Zn    0.82111   0.32111   0.50000   0.01267  Uiso   1.00
Zn1231 Zn    0.87114   0.87114  -0.00000   0.01267  Uiso   1.00
Zn1232 Zn    0.82111   0.82111  -0.00000   0.01267  Uiso   1.00
Zn1233 Zn    0.62886   0.62886   0.00000   0.01267  Uiso   1.00
Zn1234 Zn    0.67889   0.67889  -0.00000   0.01267  Uiso   1.00
Zn1235 Zn    0.62886   0.12886   0.50000   0.01267  Uiso   1.00
Zn1236 Zn    0.67889   0.17889   0.50000   0.01267  Uiso   1.00
Zn1237 Zn    0.12886   0.62886   0.50000   0.01267  Uiso   1.00
Zn1238 Zn    0.17889   0.67889   0.50000   0.01267  Uiso   1.00
Zn1239 Zn    0.12886   0.12886  -0.00000   0.01267  Uiso   1.00
Zn1240 Zn    0.17889   0.17889  -0.00000   0.01267  Uiso   1.00
Zn1241 Zn    0.37114   0.62886   0.00000   0.01267  Uiso   1.00
Zn1242 Zn    0.32111   0.67889   0.00000   0.01267  Uiso   1.00
Zn1243 Zn    0.37114   0.12886   0.50000   0.01267  Uiso   1.00
Zn1244 Zn    0.32111   0.17889   0.50000   0.01267  Uiso   1.00
Zn1245 Zn    0.87114   0.62886   0.50000   0.01267  Uiso   1.00
Zn1246 Zn    0.82111   0.67889   0.50000   0.01267  Uiso   1.00
Zn1247 Zn    0.87114   0.12886   0.00000   0.01267  Uiso   1.00
Zn1248 Zn    0.82111   0.17889   0.00000   0.01267  Uiso   1.00
H1249  H     0.57400   0.16550   0.42600   0.01267  Uiso   1.00
C1250  C     0.58203   0.18454   0.41797   0.01267  Uiso   1.00
C1251  C     0.60298   0.24280   0.39702   0.01267  Uiso   1.00
C1252  C     0.61298   0.27090   0.38702   0.01267  Uiso   1.00
C1253  C     0.62210   0.29610   0.37790   0.01267  Uiso   1.00
C1254  C     0.63372   0.32730   0.36628   0.01267  Uiso   1.00
H1255  H     0.57400   0.66550   0.92600   0.01267  Uiso   1.00
C1256  C     0.58203   0.68454   0.91797   0.01267  Uiso   1.00
C1257  C     0.60298   0.74280   0.89702   0.01267  Uiso   1.00
C1258  C     0.61298   0.77090   0.88702   0.01267  Uiso   1.00
C1259  C     0.62210   0.79610   0.87790   0.01267  Uiso   1.00
C1260  C     0.63372   0.82730   0.86628   0.01267  Uiso   1.00
H1261  H     0.07400   0.16550   0.92600   0.01267  Uiso   1.00
C1262  C     0.08203   0.18454   0.91797   0.01267  Uiso   1.00
C1263  C     0.10298   0.24280   0.89702   0.01267  Uiso   1.00
C1264  C     0.11298   0.27090   0.88702   0.01267  Uiso   1.00
C1265  C     0.12210   0.29610   0.87790   0.01267  Uiso   1.00
C1266  C     0.13372   0.32730   0.86628   0.01267  Uiso   1.00
H1267  H     0.07400   0.66550   0.42600   0.01267  Uiso   1.00
C1268  C     0.08203   0.68454   0.41797   0.01267  Uiso   1.00
C1269  C     0.10298   0.74280   0.39702   0.01267  Uiso   1.00
C1270  C     0.11298   0.77090   0.38702   0.01267  Uiso   1.00
C1271  C     0.12210   0.79610   0.37790   0.01267  Uiso   1.00
C1272  C     0.13372   0.82730   0.36628   0.01267  Uiso   1.00
H1273  H     0.42600   0.83450   0.42600   0.01267  Uiso   1.00
C1274  C     0.41797   0.81546   0.41797   0.01267  Uiso   1.00
C1275  C     0.39702   0.75720   0.39702   0.01267  Uiso   1.00
C1276  C     0.38702   0.72910   0.38702   0.01267  Uiso   1.00
C1277  C     0.37790   0.70390   0.37790   0.01267  Uiso   1.00
C1278  C     0.36628   0.67270   0.36628   0.01267  Uiso   1.00
H1279  H     0.42600   0.33450   0.92600   0.01267  Uiso   1.00
C1280  C     0.41797   0.31546   0.91797   0.01267  Uiso   1.00
C1281  C     0.39702   0.25720   0.89702   0.01267  Uiso   1.00
C1282  C     0.38702   0.22910   0.88702   0.01267  Uiso   1.00
C1283  C     0.37790   0.20390   0.87790   0.01267  Uiso   1.00
C1284  C     0.36628   0.17270   0.86628   0.01267  Uiso   1.00
H1285  H     0.92600   0.83450   0.92600   0.01267  Uiso   1.00
C1286  C     0.91797   0.81546   0.91797   0.01267  Uiso   1.00
C1287  C     0.89702   0.75720   0.89702   0.01267  Uiso   1.00
C1288  C     0.88702   0.72910   0.88702   0.01267  Uiso   1.00
C1289  C     0.87790   0.70390   0.87790   0.01267  Uiso   1.00
C1290  C     0.86628   0.67270   0.86628   0.01267  Uiso   1.00
H1291  H     0.92600   0.33450   0.42600   0.01267  Uiso   1.00
C1292  C     0.91797   0.31546   0.41797   0.01267  Uiso   1.00
C1293  C     0.89702   0.25720   0.39702   0.01267  Uiso   1.00
C1294  C     0.88702   0.22910   0.38702   0.01267  Uiso   1.00
C1295  C     0.87790   0.20390   0.37790   0.01267  Uiso   1.00
C1296  C     0.86628   0.17270   0.36628   0.01267  Uiso   1.00
H1297  H     0.42600   0.16550   0.57400   0.01267  Uiso   1.00
C1298  C     0.41797   0.18454   0.58203   0.01267  Uiso   1.00
C1299  C     0.39702   0.24280   0.60298   0.01267  Uiso   1.00
C1300  C     0.38702   0.27090   0.61298   0.01267  Uiso   1.00
C1301  C     0.37790   0.29610   0.62210   0.01267  Uiso   1.00
C1302  C     0.36628   0.32730   0.63372   0.01267  Uiso   1.00
H1303  H     0.42600   0.66550   0.07400   0.01267  Uiso   1.00
C1304  C     0.41797   0.68454   0.08203   0.01267  Uiso   1.00
C1305  C     0.39702   0.74280   0.10298   0.01267  Uiso   1.00
C1306  C     0.38702   0.77090   0.11298   0.01267  Uiso   1.00
C1307  C     0.37790   0.79610   0.12210   0.01267  Uiso   1.00
C1308  C     0.36628   0.82730   0.13372   0.01267  Uiso   1.00
H1309  H     0.92600   0.16550   0.07400   0.01267  Uiso   1.00
C1310  C     0.91797   0.18454   0.08203   0.01267  Uiso   1.00
C1311  C     0.89702   0.24280   0.10298   0.01267  Uiso   1.00
C1312  C     0.88702   0.27090   0.11298   0.01267  Uiso   1.00
C1313  C     0.87790   0.29610   0.12210   0.01267  Uiso   1.00
C1314  C     0.86628   0.32730   0.13372   0.01267  Uiso   1.00
H1315  H     0.92600   0.66550   0.57400   0.01267  Uiso   1.00
C1316  C     0.91797   0.68454   0.58203   0.01267  Uiso   1.00
C1317  C     0.89702   0.74280   0.60298   0.01267  Uiso   1.00
C1318  C     0.88702   0.77090   0.61298   0.01267  Uiso   1.00
C1319  C     0.87790   0.79610   0.62210   0.01267  Uiso   1.00
C1320  C     0.86628   0.82730   0.63372   0.01267  Uiso   1.00
H1321  H     0.57400   0.83450   0.57400   0.01267  Uiso   1.00
C1322  C     0.58203   0.81546   0.58203   0.01267  Uiso   1.00
C1323  C     0.60298   0.75720   0.60298   0.01267  Uiso   1.00
C1324  C     0.61298   0.72910   0.61298   0.01267  Uiso   1.00
C1325  C     0.62210   0.70390   0.62210   0.01267  Uiso   1.00
C1326  C     0.63372   0.67270   0.63372   0.01267  Uiso   1.00
H1327  H     0.57400   0.33450   0.07400   0.01267  Uiso   1.00
C1328  C     0.58203   0.31546   0.08203   0.01267  Uiso   1.00
C1329  C     0.60298   0.25720   0.10298   0.01267  Uiso   1.00
C1330  C     0.61298   0.22910   0.11298   0.01267  Uiso   1.00
C1331  C     0.62210   0.20390   0.12210   0.01267  Uiso   1.00
C1332  C     0.63372   0.17270   0.13372   0.01267  Uiso   1.00
H1333  H     0.07400   0.83450   0.07400   0.01267  Uiso   1.00
C1334  C     0.08203   0.81546   0.08203   0.01267  Uiso   1.00
C1335  C     0.10298   0.75720   0.10298   0.01267  Uiso   1.00
C1336  C     0.11298   0.72910   0.11298   0.01267  Uiso   1.00
C1337  C     0.12210   0.70390   0.12210   0.01267  Uiso   1.00
C1338  C     0.13372   0.67270   0.13372   0.01267  Uiso   1.00
H1339  H     0.07400   0.33450   0.57400   0.01267  Uiso   1.00
C1340  C     0.08203   0.31546   0.58203   0.01267  Uiso   1.00
C1341  C     0.10298   0.25720   0.60298   0.01267  Uiso   1.00
C1342  C     0.11298   0.22910   0.61298   0.01267  Uiso   1.00
C1343  C     0.12210   0.20390   0.62210   0.01267  Uiso   1.00
C1344  C     0.13372   0.17270   0.63372   0.01267  Uiso   1.00
H1345  H     0.42600   0.57400   0.16550   0.01267  Uiso   1.00
C1346  C     0.41797   0.58203   0.18454   0.01267  Uiso   1.00
C1347  C     0.39702   0.60298   0.24280   0.01267  Uiso   1.00
C1348  C     0.38702   0.61298   0.27090   0.01267  Uiso   1.00
C1349  C     0.37790   0.62210   0.29610   0.01267  Uiso   1.00
C1350  C     0.36628   0.63372   0.32730   0.01267  Uiso   1.00
H1351  H     0.42600   0.07400   0.66550   0.01267  Uiso   1.00
C1352  C     0.41797   0.08203   0.68454   0.01267  Uiso   1.00
C1353  C     0.39702   0.10298   0.74280   0.01267  Uiso   1.00
C1354  C     0.38702   0.11298   0.77090   0.01267  Uiso   1.00
C1355  C     0.37790   0.12210   0.79610   0.01267  Uiso   1.00
C1356  C     0.36628   0.13372   0.82730   0.01267  Uiso   1.00
H1357  H     0.92600   0.57400   0.66550   0.01267  Uiso   1.00
C1358  C     0.91797   0.58203   0.68454   0.01267  Uiso   1.00
C1359  C     0.89702   0.60298   0.74280   0.01267  Uiso   1.00
C1360  C     0.88702   0.61298   0.77090   0.01267  Uiso   1.00
C1361  C     0.87790   0.62210   0.79610   0.01267  Uiso   1.00
C1362  C     0.86628   0.63372   0.82730   0.01267  Uiso   1.00
H1363  H     0.92600   0.07400   0.16550   0.01267  Uiso   1.00
C1364  C     0.91797   0.08203   0.18454   0.01267  Uiso   1.00
C1365  C     0.89702   0.10298   0.24280   0.01267  Uiso   1.00
C1366  C     0.88702   0.11298   0.27090   0.01267  Uiso   1.00
C1367  C     0.87790   0.12210   0.29610   0.01267  Uiso   1.00
C1368  C     0.86628   0.13372   0.32730   0.01267  Uiso   1.00
H1369  H     0.42600   0.42600   0.83450   0.01267  Uiso   1.00
C1370  C     0.41797   0.41797   0.81546   0.01267  Uiso   1.00
C1371  C     0.39702   0.39702   0.75720   0.01267  Uiso   1.00
C1372  C     0.38702   0.38702   0.72910   0.01267  Uiso   1.00
C1373  C     0.37790   0.37790   0.70390   0.01267  Uiso   1.00
C1374  C     0.36628   0.36628   0.67270   0.01267  Uiso   1.00
H1375  H     0.42600   0.92600   0.33450   0.01267  Uiso   1.00
C1376  C     0.41797   0.91797   0.31546   0.01267  Uiso   1.00
C1377  C     0.39702   0.89702   0.25720   0.01267  Uiso   1.00
C1378  C     0.38702   0.88702   0.22910   0.01267  Uiso   1.00
C1379  C     0.37790   0.87790   0.20390   0.01267  Uiso   1.00
C1380  C     0.36628   0.86628   0.17270   0.01267  Uiso   1.00
H1381  H     0.92600   0.42600   0.33450   0.01267  Uiso   1.00
C1382  C     0.91797   0.41797   0.31546   0.01267  Uiso   1.00
C1383  C     0.89702   0.39702   0.25720   0.01267  Uiso   1.00
C1384  C     0.88702   0.38702   0.22910   0.01267  Uiso   1.00
C1385  C     0.87790   0.37790   0.20390   0.01267  Uiso   1.00
C1386  C     0.86628   0.36628   0.17270   0.01267  Uiso   1.00
H1387  H     0.92600   0.92600   0.83450   0.01267  Uiso   1.00
C1388  C     0.91797   0.91797   0.81546   0.01267  Uiso   1.00
C1389  C     0.89702   0.89702   0.75720   0.01267  Uiso   1.00
C1390  C     0.88702   0.88702   0.72910   0.01267  Uiso   1.00
C1391  C     0.87790   0.87790   0.70390   0.01267  Uiso   1.00
C1392  C     0.86628   0.86628   0.67270   0.01267  Uiso   1.00
H1393  H     0.57400   0.42600   0.16550   0.01267  Uiso   1.00
C1394  C     0.58203   0.41797   0.18454   0.01267  Uiso   1.00
C1395  C     0.60298   0.39702   0.24280   0.01267  Uiso   1.00
C1396  C     0.61298   0.38702   0.27090   0.01267  Uiso   1.00
C1397  C     0.62210   0.37790   0.29610   0.01267  Uiso   1.00
C1398  C     0.63372   0.36628   0.32730   0.01267  Uiso   1.00
H1399  H     0.57400   0.92600   0.66550   0.01267  Uiso   1.00
C1400  C     0.58203   0.91797   0.68454   0.01267  Uiso   1.00
C1401  C     0.60298   0.89702   0.74280   0.01267  Uiso   1.00
C1402  C     0.61298   0.88702   0.77090   0.01267  Uiso   1.00
C1403  C     0.62210   0.87790   0.79610   0.01267  Uiso   1.00
C1404  C     0.63372   0.86628   0.82730   0.01267  Uiso   1.00
H1405  H     0.07400   0.42600   0.66550   0.01267  Uiso   1.00
C1406  C     0.08203   0.41797   0.68454   0.01267  Uiso   1.00
C1407  C     0.10298   0.39702   0.74280   0.01267  Uiso   1.00
C1408  C     0.11298   0.38702   0.77090   0.01267  Uiso   1.00
C1409  C     0.12210   0.37790   0.79610   0.01267  Uiso   1.00
C1410  C     0.13372   0.36628   0.82730   0.01267  Uiso   1.00
H1411  H     0.07400   0.92600   0.16550   0.01267  Uiso   1.00
C1412  C     0.08203   0.91797   0.18454   0.01267  Uiso   1.00
C1413  C     0.10298   0.89702   0.24280   0.01267  Uiso   1.00
C1414  C     0.11298   0.88702   0.27090   0.01267  Uiso   1.00
C1415  C     0.12210   0.87790   0.29610   0.01267  Uiso   1.00
C1416  C     0.13372   0.86628   0.32730   0.01267  Uiso   1.00
H1417  H     0.57400   0.57400   0.83450   0.01267  Uiso   1.00
C1418  C     0.58203   0.58203   0.81546   0.01267  Uiso   1.00
C1419  C     0.60298   0.60298   0.75720   0.01267  Uiso   1.00
C1420  C     0.61298   0.61298   0.72910   0.01267  Uiso   1.00
C1421  C     0.62210   0.62210   0.70390   0.01267  Uiso   1.00
C1422  C     0.63372   0.63372   0.67270   0.01267  Uiso   1.00
H1423  H     0.57400   0.07400   0.33450   0.01267  Uiso   1.00
C1424  C     0.58203   0.08203   0.31546   0.01267  Uiso   1.00
C1425  C     0.60298   0.10298   0.25720   0.01267  Uiso   1.00
C1426  C     0.61298   0.11298   0.22910   0.01267  Uiso   1.00
C1427  C     0.62210   0.12210   0.20390   0.01267  Uiso   1.00
C1428  C     0.63372   0.13372   0.17270   0.01267  Uiso   1.00
H1429  H     0.07400   0.57400   0.33450   0.01267  Uiso   1.00
C1430  C     0.08203   0.58203   0.31546   0.01267  Uiso   1.00
C1431  C     0.10298   0.60298   0.25720   0.01267  Uiso   1.00
C1432  C     0.11298   0.61298   0.22910   0.01267  Uiso   1.00
C1433  C     0.12210   0.62210   0.20390   0.01267  Uiso   1.00
C1434  C     0.13372   0.63372   0.17270   0.01267  Uiso   1.00
H1435  H     0.07400   0.07400   0.83450   0.01267  Uiso   1.00
C1436  C     0.08203   0.08203   0.81546   0.01267  Uiso   1.00
C1437  C     0.10298   0.10298   0.75720   0.01267  Uiso   1.00
C1438  C     0.11298   0.11298   0.72910   0.01267  Uiso   1.00
C1439  C     0.12210   0.12210   0.70390   0.01267  Uiso   1.00
C1440  C     0.13372   0.13372   0.67270   0.01267  Uiso   1.00
H1441  H     0.16550   0.42600   0.57400   0.01267  Uiso   1.00
C1442  C     0.18454   0.41797   0.58203   0.01267  Uiso   1.00
C1443  C     0.24280   0.39702   0.60298   0.01267  Uiso   1.00
C1444  C     0.27090   0.38702   0.61298   0.01267  Uiso   1.00
C1445  C     0.29610   0.37790   0.62210   0.01267  Uiso   1.00
C1446  C     0.32730   0.36628   0.63372   0.01267  Uiso   1.00
H1447  H     0.16550   0.92600   0.07400   0.01267  Uiso   1.00
C1448  C     0.18454   0.91797   0.08203   0.01267  Uiso   1.00
C1449  C     0.24280   0.89702   0.10298   0.01267  Uiso   1.00
C1450  C     0.27090   0.88702   0.11298   0.01267  Uiso   1.00
C1451  C     0.29610   0.87790   0.12210   0.01267  Uiso   1.00
C1452  C     0.32730   0.86628   0.13372   0.01267  Uiso   1.00
H1453  H     0.66550   0.42600   0.07400   0.01267  Uiso   1.00
C1454  C     0.68454   0.41797   0.08203   0.01267  Uiso   1.00
C1455  C     0.74280   0.39702   0.10298   0.01267  Uiso   1.00
C1456  C     0.77090   0.38702   0.11298   0.01267  Uiso   1.00
C1457  C     0.79610   0.37790   0.12210   0.01267  Uiso   1.00
C1458  C     0.82730   0.36628   0.13372   0.01267  Uiso   1.00
H1459  H     0.66550   0.92600   0.57400   0.01267  Uiso   1.00
C1460  C     0.68454   0.91797   0.58203   0.01267  Uiso   1.00
C1461  C     0.74280   0.89702   0.60298   0.01267  Uiso   1.00
C1462  C     0.77090   0.88702   0.61298   0.01267  Uiso   1.00
C1463  C     0.79610   0.87790   0.62210   0.01267  Uiso   1.00
C1464  C     0.82730   0.86628   0.63372   0.01267  Uiso   1.00
H1465  H     0.83450   0.42600   0.42600   0.01267  Uiso   1.00
C1466  C     0.81546   0.41797   0.41797   0.01267  Uiso   1.00
C1467  C     0.75720   0.39702   0.39702   0.01267  Uiso   1.00
C1468  C     0.72910   0.38702   0.38702   0.01267  Uiso   1.00
C1469  C     0.70390   0.37790   0.37790   0.01267  Uiso   1.00
C1470  C     0.67270   0.36628   0.36628   0.01267  Uiso   1.00
H1471  H     0.83450   0.92600   0.92600   0.01267  Uiso   1.00
C1472  C     0.81546   0.91797   0.91797   0.01267  Uiso   1.00
C1473  C     0.75720   0.89702   0.89702   0.01267  Uiso   1.00
C1474  C     0.72910   0.88702   0.88702   0.01267  Uiso   1.00
C1475  C     0.70390   0.87790   0.87790   0.01267  Uiso   1.00
C1476  C     0.67270   0.86628   0.86628   0.01267  Uiso   1.00
H1477  H     0.33450   0.42600   0.92600   0.01267  Uiso   1.00
C1478  C     0.31546   0.41797   0.91797   0.01267  Uiso   1.00
C1479  C     0.25720   0.39702   0.89702   0.01267  Uiso   1.00
C1480  C     0.22910   0.38702   0.88702   0.01267  Uiso   1.00
C1481  C     0.20390   0.37790   0.87790   0.01267  Uiso   1.00
C1482  C     0.17270   0.36628   0.86628   0.01267  Uiso   1.00
H1483  H     0.33450   0.92600   0.42600   0.01267  Uiso   1.00
C1484  C     0.31546   0.91797   0.41797   0.01267  Uiso   1.00
C1485  C     0.25720   0.89702   0.39702   0.01267  Uiso   1.00
C1486  C     0.22910   0.88702   0.38702   0.01267  Uiso   1.00
C1487  C     0.20390   0.87790   0.37790   0.01267  Uiso   1.00
C1488  C     0.17270   0.86628   0.36628   0.01267  Uiso   1.00
H1489  H     0.16550   0.57400   0.42600   0.01267  Uiso   1.00
C1490  C     0.18454   0.58203   0.41797   0.01267  Uiso   1.00
C1491  C     0.24280   0.60298   0.39702   0.01267  Uiso   1.00
C1492  C     0.27090   0.61298   0.38702   0.01267  Uiso   1.00
C1493  C     0.29610   0.62210   0.37790   0.01267  Uiso   1.00
C1494  C     0.32730   0.63372   0.36628   0.01267  Uiso   1.00
H1495  H     0.16550   0.07400   0.92600   0.01267  Uiso   1.00
C1496  C     0.18454   0.08203   0.91797   0.01267  Uiso   1.00
C1497  C     0.24280   0.10298   0.89702   0.01267  Uiso   1.00
C1498  C     0.27090   0.11298   0.88702   0.01267  Uiso   1.00
C1499  C     0.29610   0.12210   0.87790   0.01267  Uiso   1.00
C1500  C     0.32730   0.13372   0.86628   0.01267  Uiso   1.00
H1501  H     0.66550   0.57400   0.92600   0.01267  Uiso   1.00
C1502  C     0.68454   0.58203   0.91797   0.01267  Uiso   1.00
C1503  C     0.74280   0.60298   0.89702   0.01267  Uiso   1.00
C1504  C     0.77090   0.61298   0.88702   0.01267  Uiso   1.00
C1505  C     0.79610   0.62210   0.87790   0.01267  Uiso   1.00
C1506  C     0.82730   0.63372   0.86628   0.01267  Uiso   1.00
H1507  H     0.66550   0.07400   0.42600   0.01267  Uiso   1.00
C1508  C     0.68454   0.08203   0.41797   0.01267  Uiso   1.00
C1509  C     0.74280   0.10298   0.39702   0.01267  Uiso   1.00
C1510  C     0.77090   0.11298   0.38702   0.01267  Uiso   1.00
C1511  C     0.79610   0.12210   0.37790   0.01267  Uiso   1.00
C1512  C     0.82730   0.13372   0.36628   0.01267  Uiso   1.00
H1513  H     0.83450   0.57400   0.57400   0.01267  Uiso   1.00
C1514  C     0.81546   0.58203   0.58203   0.01267  Uiso   1.00
C1515  C     0.75720   0.60298   0.60298   0.01267  Uiso   1.00
C1516  C     0.72910   0.61298   0.61298   0.01267  Uiso   1.00
C1517  C     0.70390   0.62210   0.62210   0.01267  Uiso   1.00
C1518  C     0.67270   0.63372   0.63372   0.01267  Uiso   1.00
H1519  H     0.83450   0.07400   0.07400   0.01267  Uiso   1.00
C1520  C     0.81546   0.08203   0.08203   0.01267  Uiso   1.00
C1521  C     0.75720   0.10298   0.10298   0.01267  Uiso   1.00
C1522  C     0.72910   0.11298   0.11298   0.01267  Uiso   1.00
C1523  C     0.70390   0.12210   0.12210   0.01267  Uiso   1.00
C1524  C     0.67270   0.13372   0.13372   0.01267  Uiso   1.00
H1525  H     0.33450   0.57400   0.07400   0.01267  Uiso   1.00
C1526  C     0.31546   0.58203   0.08203   0.01267  Uiso   1.00
C1527  C     0.25720   0.60298   0.10298   0.01267  Uiso   1.00
C1528  C     0.22910   0.61298   0.11298   0.01267  Uiso   1.00
C1529  C     0.20390   0.62210   0.12210   0.01267  Uiso   1.00
C1530  C     0.17270   0.63372   0.13372   0.01267  Uiso   1.00
H1531  H     0.33450   0.07400   0.57400   0.01267  Uiso   1.00
C1532  C     0.31546   0.08203   0.58203   0.01267  Uiso   1.00
C1533  C     0.25720   0.10298   0.60298   0.01267  Uiso   1.00
C1534  C     0.22910   0.11298   0.61298   0.01267  Uiso   1.00
C1535  C     0.20390   0.12210   0.62210   0.01267  Uiso   1.00
C1536  C     0.17270   0.13372   0.63372   0.01267  Uiso   1.00
H1537  H     0.16550   0.57400   0.57400   0.01267  Uiso   1.00
C1538  C     0.18454   0.58203   0.58203   0.01267  Uiso   1.00
C1539  C     0.24280   0.60298   0.60298   0.01267  Uiso   1.00
C1540  C     0.27090   0.61298   0.61298   0.01267  Uiso   1.00
C1541  C     0.29610   0.62210   0.62210   0.01267  Uiso   1.00
C1542  C     0.32730   0.63372   0.63372   0.01267  Uiso   1.00
H1543  H     0.16550   0.07400   0.07400   0.01267  Uiso   1.00
C1544  C     0.18454   0.08203   0.08203   0.01267  Uiso   1.00
C1545  C     0.24280   0.10298   0.10298   0.01267  Uiso   1.00
C1546  C     0.27090   0.11298   0.11298   0.01267  Uiso   1.00
C1547  C     0.29610   0.12210   0.12210   0.01267  Uiso   1.00
C1548  C     0.32730   0.13372   0.13372   0.01267  Uiso   1.00
H1549  H     0.66550   0.57400   0.07400   0.01267  Uiso   1.00
C1550  C     0.68454   0.58203   0.08203   0.01267  Uiso   1.00
C1551  C     0.74280   0.60298   0.10298   0.01267  Uiso   1.00
C1552  C     0.77090   0.61298   0.11298   0.01267  Uiso   1.00
C1553  C     0.79610   0.62210   0.12210   0.01267  Uiso   1.00
C1554  C     0.82730   0.63372   0.13372   0.01267  Uiso   1.00
H1555  H     0.66550   0.07400   0.57400   0.01267  Uiso   1.00
C1556  C     0.68454   0.08203   0.58203   0.01267  Uiso   1.00
C1557  C     0.74280   0.10298   0.60298   0.01267  Uiso   1.00
C1558  C     0.77090   0.11298   0.61298   0.01267  Uiso   1.00
C1559  C     0.79610   0.12210   0.62210   0.01267  Uiso   1.00
C1560  C     0.82730   0.13372   0.63372   0.01267  Uiso   1.00
H1561  H     0.83450   0.42600   0.57400   0.01267  Uiso   1.00
C1562  C     0.81546   0.41797   0.58203   0.01267  Uiso   1.00
C1563  C     0.75720   0.39702   0.60298   0.01267  Uiso   1.00
C1564  C     0.72910   0.38702   0.61298   0.01267  Uiso   1.00
C1565  C     0.70390   0.37790   0.62210   0.01267  Uiso   1.00
C1566  C     0.67270   0.36628   0.63372   0.01267  Uiso   1.00
H1567  H     0.83450   0.92600   0.07400   0.01267  Uiso   1.00
C1568  C     0.81546   0.91797   0.08203   0.01267  Uiso   1.00
C1569  C     0.75720   0.89702   0.10298   0.01267  Uiso   1.00
C1570  C     0.72910   0.88702   0.11298   0.01267  Uiso   1.00
C1571  C     0.70390   0.87790   0.12210   0.01267  Uiso   1.00
C1572  C     0.67270   0.86628   0.13372   0.01267  Uiso   1.00
H1573  H     0.33450   0.42600   0.07400   0.01267  Uiso   1.00
C1574  C     0.31546   0.41797   0.08203   0.01267  Uiso   1.00
C1575  C     0.25720   0.39702   0.10298   0.01267  Uiso   1.00
C1576  C     0.22910   0.38702   0.11298   0.01267  Uiso   1.00
C1577  C     0.20390   0.37790   0.12210   0.01267  Uiso   1.00
C1578  C     0.17270   0.36628   0.13372   0.01267  Uiso   1.00
H1579  H     0.33450   0.92600   0.57400   0.01267  Uiso   1.00
C1580  C     0.31546   0.91797   0.58203   0.01267  Uiso   1.00
C1581  C     0.25720   0.89702   0.60298   0.01267  Uiso   1.00
C1582  C     0.22910   0.88702   0.61298   0.01267  Uiso   1.00
C1583  C     0.20390   0.87790   0.62210   0.01267  Uiso   1.00
C1584  C     0.17270   0.86628   0.63372   0.01267  Uiso   1.00
H1585  H     0.16550   0.42600   0.42600   0.01267  Uiso   1.00
C1586  C     0.18454   0.41797   0.41797   0.01267  Uiso   1.00
C1587  C     0.24280   0.39702   0.39702   0.01267  Uiso   1.00
C1588  C     0.27090   0.38702   0.38702   0.01267  Uiso   1.00
C1589  C     0.29610   0.37790   0.37790   0.01267  Uiso   1.00
C1590  C     0.32730   0.36628   0.36628   0.01267  Uiso   1.00
H1591  H     0.16550   0.92600   0.92600   0.01267  Uiso   1.00
C1592  C     0.18454   0.91797   0.91797   0.01267  Uiso   1.00
C1593  C     0.24280   0.89702   0.89702   0.01267  Uiso   1.00
C1594  C     0.27090   0.88702   0.88702   0.01267  Uiso   1.00
C1595  C     0.29610   0.87790   0.87790   0.01267  Uiso   1.00
C1596  C     0.32730   0.86628   0.86628   0.01267  Uiso   1.00
H1597  H     0.66550   0.42600   0.92600   0.01267  Uiso   1.00
C1598  C     0.68454   0.41797   0.91797   0.01267  Uiso   1.00
C1599  C     0.74280   0.39702   0.89702   0.01267  Uiso   1.00
C1600  C     0.77090   0.38702   0.88702   0.01267  Uiso   1.00
C1601  C     0.79610   0.37790   0.87790   0.01267  Uiso   1.00
C1602  C     0.82730   0.36628   0.86628   0.01267  Uiso   1.00
H1603  H     0.66550   0.92600   0.42600   0.01267  Uiso   1.00
C1604  C     0.68454   0.91797   0.41797   0.01267  Uiso   1.00
C1605  C     0.74280   0.89702   0.39702   0.01267  Uiso   1.00
C1606  C     0.77090   0.88702   0.38702   0.01267  Uiso   1.00
C1607  C     0.79610   0.87790   0.37790   0.01267  Uiso   1.00
C1608  C     0.82730   0.86628   0.36628   0.01267  Uiso   1.00
H1609  H     0.83450   0.57400   0.42600   0.01267  Uiso   1.00
C1610  C     0.81546   0.58203   0.41797   0.01267  Uiso   1.00
C1611  C     0.75720   0.60298   0.39702   0.01267  Uiso   1.00
C1612  C     0.72910   0.61298   0.38702   0.01267  Uiso   1.00
C1613  C     0.70390   0.62210   0.37790   0.01267  Uiso   1.00
C1614  C     0.67270   0.63372   0.36628   0.01267  Uiso   1.00
H1615  H     0.83450   0.07400   0.92600   0.01267  Uiso   1.00
C1616  C     0.81546   0.08203   0.91797   0.01267  Uiso   1.00
C1617  C     0.75720   0.10298   0.89702   0.01267  Uiso   1.00
C1618  C     0.72910   0.11298   0.88702   0.01267  Uiso   1.00
C1619  C     0.70390   0.12210   0.87790   0.01267  Uiso   1.00
C1620  C     0.67270   0.13372   0.86628   0.01267  Uiso   1.00
H1621  H     0.33450   0.57400   0.92600   0.01267  Uiso   1.00
C1622  C     0.31546   0.58203   0.91797   0.01267  Uiso   1.00
C1623  C     0.25720   0.60298   0.89702   0.01267  Uiso   1.00
C1624  C     0.22910   0.61298   0.88702   0.01267  Uiso   1.00
C1625  C     0.20390   0.62210   0.87790   0.01267  Uiso   1.00
C1626  C     0.17270   0.63372   0.86628   0.01267  Uiso   1.00
H1627  H     0.33450   0.07400   0.42600   0.01267  Uiso   1.00
C1628  C     0.31546   0.08203   0.41797   0.01267  Uiso   1.00
C1629  C     0.25720   0.10298   0.39702   0.01267  Uiso   1.00
C1630  C     0.22910   0.11298   0.38702   0.01267  Uiso   1.00
C1631  C     0.20390   0.12210   0.37790   0.01267  Uiso   1.00
C1632  C     0.17270   0.13372   0.36628   0.01267  Uiso   1.00
H1633  H     0.57400   0.42600   0.83450   0.01267  Uiso   1.00
C1634  C     0.58203   0.41797   0.81546   0.01267  Uiso   1.00
C1635  C     0.60298   0.39702   0.75720   0.01267  Uiso   1.00
C1636  C     0.61298   0.38702   0.72910   0.01267  Uiso   1.00
C1637  C     0.62210   0.37790   0.70390   0.01267  Uiso   1.00
C1638  C     0.63372   0.36628   0.67270   0.01267  Uiso   1.00
H1639  H     0.57400   0.92600   0.33450   0.01267  Uiso   1.00
C1640  C     0.58203   0.91797   0.31546   0.01267  Uiso   1.00
C1641  C     0.60298   0.89702   0.25720   0.01267  Uiso   1.00
C1642  C     0.61298   0.88702   0.22910   0.01267  Uiso   1.00
C1643  C     0.62210   0.87790   0.20390   0.01267  Uiso   1.00
C1644  C     0.63372   0.86628   0.17270   0.01267  Uiso   1.00
H1645  H     0.07400   0.42600   0.33450   0.01267  Uiso   1.00
C1646  C     0.08203   0.41797   0.31546   0.01267  Uiso   1.00
C1647  C     0.10298   0.39702   0.25720   0.01267  Uiso   1.00
C1648  C     0.11298   0.38702   0.22910   0.01267  Uiso   1.00
C1649  C     0.12210   0.37790   0.20390   0.01267  Uiso   1.00
C1650  C     0.13372   0.36628   0.17270   0.01267  Uiso   1.00
H1651  H     0.07400   0.92600   0.83450   0.01267  Uiso   1.00
C1652  C     0.08203   0.91797   0.81546   0.01267  Uiso   1.00
C1653  C     0.10298   0.89702   0.75720   0.01267  Uiso   1.00
C1654  C     0.11298   0.88702   0.72910   0.01267  Uiso   1.00
C1655  C     0.12210   0.87790   0.70390   0.01267  Uiso   1.00
C1656  C     0.13372   0.86628   0.67270   0.01267  Uiso   1.00
H1657  H     0.42600   0.42600   0.16550   0.01267  Uiso   1.00
C1658  C     0.41797   0.41797   0.18454   0.01267  Uiso   1.00
C1659  C     0.39702   0.39702   0.24280   0.01267  Uiso   1.00
C1660  C     0.38702   0.38702   0.27090   0.01267  Uiso   1.00
C1661  C     0.37790   0.37790   0.29610   0.01267  Uiso   1.00
C1662  C     0.36628   0.36628   0.32730   0.01267  Uiso   1.00
H1663  H     0.42600   0.92600   0.66550   0.01267  Uiso   1.00
C1664  C     0.41797   0.91797   0.68454   0.01267  Uiso   1.00
C1665  C     0.39702   0.89702   0.74280   0.01267  Uiso   1.00
C1666  C     0.38702   0.88702   0.77090   0.01267  Uiso   1.00
C1667  C     0.37790   0.87790   0.79610   0.01267  Uiso   1.00
C1668  C     0.36628   0.86628   0.82730   0.01267  Uiso   1.00
H1669  H     0.92600   0.42600   0.66550   0.01267  Uiso   1.00
C1670  C     0.91797   0.41797   0.68454   0.01267  Uiso   1.00
C1671  C     0.89702   0.39702   0.74280   0.01267  Uiso   1.00
C1672  C     0.88702   0.38702   0.77090   0.01267  Uiso   1.00
C1673  C     0.87790   0.37790   0.79610   0.01267  Uiso   1.00
C1674  C     0.86628   0.36628   0.82730   0.01267  Uiso   1.00
H1675  H     0.92600   0.92600   0.16550   0.01267  Uiso   1.00
C1676  C     0.91797   0.91797   0.18454   0.01267  Uiso   1.00
C1677  C     0.89702   0.89702   0.24280   0.01267  Uiso   1.00
C1678  C     0.88702   0.88702   0.27090   0.01267  Uiso   1.00
C1679  C     0.87790   0.87790   0.29610   0.01267  Uiso   1.00
C1680  C     0.86628   0.86628   0.32730   0.01267  Uiso   1.00
H1681  H     0.42600   0.57400   0.83450   0.01267  Uiso   1.00
C1682  C     0.41797   0.58203   0.81546   0.01267  Uiso   1.00
C1683  C     0.39702   0.60298   0.75720   0.01267  Uiso   1.00
C1684  C     0.38702   0.61298   0.72910   0.01267  Uiso   1.00
C1685  C     0.37790   0.62210   0.70390   0.01267  Uiso   1.00
C1686  C     0.36628   0.63372   0.67270   0.01267  Uiso   1.00
H1687  H     0.42600   0.07400   0.33450   0.01267  Uiso   1.00
C1688  C     0.41797   0.08203   0.31546   0.01267  Uiso   1.00
C1689  C     0.39702   0.10298   0.25720   0.01267  Uiso   1.00
C1690  C     0.38702   0.11298   0.22910   0.01267  Uiso   1.00
C1691  C     0.37790   0.12210   0.20390   0.01267  Uiso   1.00
C1692  C     0.36628   0.13372   0.17270   0.01267  Uiso   1.00
H1693  H     0.92600   0.57400   0.33450   0.01267  Uiso   1.00
C1694  C     0.91797   0.58203   0.31546   0.01267  Uiso   1.00
C1695  C     0.89702   0.60298   0.25720   0.01267  Uiso   1.00
C1696  C     0.88702   0.61298   0.22910   0.01267  Uiso   1.00
C1697  C     0.87790   0.62210   0.20390   0.01267  Uiso   1.00
C1698  C     0.86628   0.63372   0.17270   0.01267  Uiso   1.00
H1699  H     0.92600   0.07400   0.83450   0.01267  Uiso   1.00
C1700  C     0.91797   0.08203   0.81546   0.01267  Uiso   1.00
C1701  C     0.89702   0.10298   0.75720   0.01267  Uiso   1.00
C1702  C     0.88702   0.11298   0.72910   0.01267  Uiso   1.00
C1703  C     0.87790   0.12210   0.70390   0.01267  Uiso   1.00
C1704  C     0.86628   0.13372   0.67270   0.01267  Uiso   1.00
H1705  H     0.57400   0.57400   0.16550   0.01267  Uiso   1.00
C1706  C     0.58203   0.58203   0.18454   0.01267  Uiso   1.00
C1707  C     0.60298   0.60298   0.24280   0.01267  Uiso   1.00
C1708  C     0.61298   0.61298   0.27090   0.01267  Uiso   1.00
C1709  C     0.62210   0.62210   0.29610   0.01267  Uiso   1.00
C1710  C     0.63372   0.63372   0.32730   0.01267  Uiso   1.00
H1711  H     0.57400   0.07400   0.66550   0.01267  Uiso   1.00
C1712  C     0.58203   0.08203   0.68454   0.01267  Uiso   1.00
C1713  C     0.60298   0.10298   0.74280   0.01267  Uiso   1.00
C1714  C     0.61298   0.11298   0.77090   0.01267  Uiso   1.00
C1715  C     0.62210   0.12210   0.79610   0.01267  Uiso   1.00
C1716  C     0.63372   0.13372   0.82730   0.01267  Uiso   1.00
H1717  H     0.07400   0.57400   0.66550   0.01267  Uiso   1.00
C1718  C     0.08203   0.58203   0.68454   0.01267  Uiso   1.00
C1719  C     0.10298   0.60298   0.74280   0.01267  Uiso   1.00
C1720  C     0.11298   0.61298   0.77090   0.01267  Uiso   1.00
C1721  C     0.12210   0.62210   0.79610   0.01267  Uiso   1.00
C1722  C     0.13372   0.63372   0.82730   0.01267  Uiso   1.00
H1723  H     0.07400   0.07400   0.16550   0.01267  Uiso   1.00
C1724  C     0.08203   0.08203   0.18454   0.01267  Uiso   1.00
C1725  C     0.10298   0.10298   0.24280   0.01267  Uiso   1.00
C1726  C     0.11298   0.11298   0.27090   0.01267  Uiso   1.00
C1727  C     0.12210   0.12210   0.29610   0.01267  Uiso   1.00
C1728  C     0.13372   0.13372   0.32730   0.01267  Uiso   1.00
H1729  H     0.42600   0.16550   0.42600   0.01267  Uiso   1.00
C1730  C     0.41797   0.18454   0.41797   0.01267  Uiso   1.00
C1731  C     0.39702   0.24280   0.39702   0.01267  Uiso   1.00
C1732  C     0.38702   0.27090   0.38702   0.01267  Uiso   1.00
C1733  C     0.37790   0.29610   0.37790   0.01267  Uiso   1.00
C1734  C     0.36628   0.32730   0.36628   0.01267  Uiso   1.00
H1735  H     0.42600   0.66550   0.92600   0.01267  Uiso   1.00
C1736  C     0.41797   0.68454   0.91797   0.01267  Uiso   1.00
C1737  C     0.39702   0.74280   0.89702   0.01267  Uiso   1.00
C1738  C     0.38702   0.77090   0.88702   0.01267  Uiso   1.00
C1739  C     0.37790   0.79610   0.87790   0.01267  Uiso   1.00
C1740  C     0.36628   0.82730   0.86628   0.01267  Uiso   1.00
H1741  H     0.92600   0.16550   0.92600   0.01267  Uiso   1.00
C1742  C     0.91797   0.18454   0.91797   0.01267  Uiso   1.00
C1743  C     0.89702   0.24280   0.89702   0.01267  Uiso   1.00
C1744  C     0.88702   0.27090   0.88702   0.01267  Uiso   1.00
C1745  C     0.87790   0.29610   0.87790   0.01267  Uiso   1.00
C1746  C     0.86628   0.32730   0.86628   0.01267  Uiso   1.00
H1747  H     0.92600   0.66550   0.42600   0.01267  Uiso   1.00
C1748  C     0.91797   0.68454   0.41797   0.01267  Uiso   1.00
C1749  C     0.89702   0.74280   0.39702   0.01267  Uiso   1.00
C1750  C     0.88702   0.77090   0.38702   0.01267  Uiso   1.00
C1751  C     0.87790   0.79610   0.37790   0.01267  Uiso   1.00
C1752  C     0.86628   0.82730   0.36628   0.01267  Uiso   1.00
H1753  H     0.42600   0.83450   0.57400   0.01267  Uiso   1.00
C1754  C     0.41797   0.81546   0.58203   0.01267  Uiso   1.00
C1755  C     0.39702   0.75720   0.60298   0.01267  Uiso   1.00
C1756  C     0.38702   0.72910   0.61298   0.01267  Uiso   1.00
C1757  C     0.37790   0.70390   0.62210   0.01267  Uiso   1.00
C1758  C     0.36628   0.67270   0.63372   0.01267  Uiso   1.00
H1759  H     0.42600   0.33450   0.07400   0.01267  Uiso   1.00
C1760  C     0.41797   0.31546   0.08203   0.01267  Uiso   1.00
C1761  C     0.39702   0.25720   0.10298   0.01267  Uiso   1.00
C1762  C     0.38702   0.22910   0.11298   0.01267  Uiso   1.00
C1763  C     0.37790   0.20390   0.12210   0.01267  Uiso   1.00
C1764  C     0.36628   0.17270   0.13372   0.01267  Uiso   1.00
H1765  H     0.92600   0.83450   0.07400   0.01267  Uiso   1.00
C1766  C     0.91797   0.81546   0.08203   0.01267  Uiso   1.00
C1767  C     0.89702   0.75720   0.10298   0.01267  Uiso   1.00
C1768  C     0.88702   0.72910   0.11298   0.01267  Uiso   1.00
C1769  C     0.87790   0.70390   0.12210   0.01267  Uiso   1.00
C1770  C     0.86628   0.67270   0.13372   0.01267  Uiso   1.00
H1771  H     0.92600   0.33450   0.57400   0.01267  Uiso   1.00
C1772  C     0.91797   0.31546   0.58203   0.01267  Uiso   1.00
C1773  C     0.89702   0.25720   0.60298   0.01267  Uiso   1.00
C1774  C     0.88702   0.22910   0.61298   0.01267  Uiso   1.00
C1775  C     0.87790   0.20390   0.62210   0.01267  Uiso   1.00
C1776  C     0.86628   0.17270   0.63372   0.01267  Uiso   1.00
H1777  H     0.57400   0.16550   0.57400   0.01267  Uiso   1.00
C1778  C     0.58203   0.18454   0.58203   0.01267  Uiso   1.00
C1779  C     0.60298   0.24280   0.60298   0.01267  Uiso   1.00
C1780  C     0.61298   0.27090   0.61298   0.01267  Uiso   1.00
C1781  C     0.62210   0.29610   0.62210   0.01267  Uiso   1.00
C1782  C     0.63372   0.32730   0.63372   0.01267  Uiso   1.00
H1783  H     0.57400   0.66550   0.07400   0.01267  Uiso   1.00
C1784  C     0.58203   0.68454   0.08203   0.01267  Uiso   1.00
C1785  C     0.60298   0.74280   0.10298   0.01267  Uiso   1.00
C1786  C     0.61298   0.77090   0.11298   0.01267  Uiso   1.00
C1787  C     0.62210   0.79610   0.12210   0.01267  Uiso   1.00
C1788  C     0.63372   0.82730   0.13372   0.01267  Uiso   1.00
H1789  H     0.07400   0.16550   0.07400   0.01267  Uiso   1.00
C1790  C     0.08203   0.18454   0.08203   0.01267  Uiso   1.00
C1791  C     0.10298   0.24280   0.10298   0.01267  Uiso   1.00
C1792  C     0.11298   0.27090   0.11298   0.01267  Uiso   1.00
C1793  C     0.12210   0.29610   0.12210   0.01267  Uiso   1.00
C1794  C     0.13372   0.32730   0.13372   0.01267  Uiso   1.00
H1795  H     0.07400   0.66550   0.57400   0.01267  Uiso   1.00
C1796  C     0.08203   0.68454   0.58203   0.01267  Uiso   1.00
C1797  C     0.10298   0.74280   0.60298   0.01267  Uiso   1.00
C1798  C     0.11298   0.77090   0.61298   0.01267  Uiso   1.00
C1799  C     0.12210   0.79610   0.62210   0.01267  Uiso   1.00
C1800  C     0.13372   0.82730   0.63372   0.01267  Uiso   1.00
H1801  H     0.57400   0.83450   0.42600   0.01267  Uiso   1.00
C1802  C     0.58203   0.81546   0.41797   0.01267  Uiso   1.00
C1803  C     0.60298   0.75720   0.39702   0.01267  Uiso   1.00
C1804  C     0.61298   0.72910   0.38702   0.01267  Uiso   1.00
C1805  C     0.62210   0.70390   0.37790   0.01267  Uiso   1.00
C1806  C     0.63372   0.67270   0.36628   0.01267  Uiso   1.00
H1807  H     0.57400   0.33450   0.92600   0.01267  Uiso   1.00
C1808  C     0.58203   0.31546   0.91797   0.01267  Uiso   1.00
C1809  C     0.60298   0.25720   0.89702   0.01267  Uiso   1.00
C1810  C     0.61298   0.22910   0.88702   0.01267  Uiso   1.00
C1811  C     0.62210   0.20390   0.87790   0.01267  Uiso   1.00
C1812  C     0.63372   0.17270   0.86628   0.01267  Uiso   1.00
H1813  H     0.07400   0.83450   0.92600   0.01267  Uiso   1.00
C1814  C     0.08203   0.81546   0.91797   0.01267  Uiso   1.00
C1815  C     0.10298   0.75720   0.89702   0.01267  Uiso   1.00
C1816  C     0.11298   0.72910   0.88702   0.01267  Uiso   1.00
C1817  C     0.12210   0.70390   0.87790   0.01267  Uiso   1.00
C1818  C     0.13372   0.67270   0.86628   0.01267  Uiso   1.00
H1819  H     0.07400   0.33450   0.42600   0.01267  Uiso   1.00
C1820  C     0.08203   0.31546   0.41797   0.01267  Uiso   1.00
C1821  C     0.10298   0.25720   0.39702   0.01267  Uiso   1.00
C1822  C     0.11298   0.22910   0.38702   0.01267  Uiso   1.00
C1823  C     0.12210   0.20390   0.37790   0.01267  Uiso   1.00
C1824  C     0.13372   0.17270   0.36628   0.01267  Uiso   1.00
H1825  H     0.60060   0.33250   0.33250   0.01267  Uiso   1.00
C1826  C     0.61950   0.34060   0.34060   0.01267  Uiso   1.00
H1827  H     0.60060   0.83250   0.83250   0.01267  Uiso   1.00
C1828  C     0.61950   0.84060   0.84060   0.01267  Uiso   1.00
H1829  H     0.10060   0.33250   0.83250   0.01267  Uiso   1.00
C1830  C     0.11950   0.34060   0.84060   0.01267  Uiso   1.00
H1831  H     0.10060   0.83250   0.33250   0.01267  Uiso   1.00
C1832  C     0.11950   0.84060   0.34060   0.01267  Uiso   1.00
H1833  H     0.39940   0.66750   0.33250   0.01267  Uiso   1.00
C1834  C     0.38050   0.65940   0.34060   0.01267  Uiso   1.00
H1835  H     0.39940   0.16750   0.83250   0.01267  Uiso   1.00
C1836  C     0.38050   0.15940   0.84060   0.01267  Uiso   1.00
H1837  H     0.89940   0.66750   0.83250   0.01267  Uiso   1.00
C1838  C     0.88050   0.65940   0.84060   0.01267  Uiso   1.00
H1839  H     0.89940   0.16750   0.33250   0.01267  Uiso   1.00
C1840  C     0.88050   0.15940   0.34060   0.01267  Uiso   1.00
H1841  H     0.39940   0.33250   0.66750   0.01267  Uiso   1.00
C1842  C     0.38050   0.34060   0.65940   0.01267  Uiso   1.00
H1843  H     0.39940   0.83250   0.16750   0.01267  Uiso   1.00
C1844  C     0.38050   0.84060   0.15940   0.01267  Uiso   1.00
H1845  H     0.89940   0.33250   0.16750   0.01267  Uiso   1.00
C1846  C     0.88050   0.34060   0.15940   0.01267  Uiso   1.00
H1847  H     0.89940   0.83250   0.66750   0.01267  Uiso   1.00
C1848  C     0.88050   0.84060   0.65940   0.01267  Uiso   1.00
H1849  H     0.60060   0.66750   0.66750   0.01267  Uiso   1.00
C1850  C     0.61950   0.65940   0.65940   0.01267  Uiso   1.00
H1851  H     0.60060   0.16750   0.16750   0.01267  Uiso   1.00
C1852  C     0.61950   0.15940   0.15940   0.01267  Uiso   1.00
H1853  H     0.10060   0.66750   0.16750   0.01267  Uiso   1.00
C1854  C     0.11950   0.65940   0.15940   0.01267  Uiso   1.00
H1855  H     0.10060   0.16750   0.66750   0.01267  Uiso   1.00
C1856  C     0.11950   0.15940   0.65940   0.01267  Uiso   1.00
H1857  H     0.33250   0.60060   0.33250   0.01267  Uiso   1.00
C1858  C     0.34060   0.61950   0.34060   0.01267  Uiso   1.00
H1859  H     0.33250   0.10060   0.83250   0.01267  Uiso   1.00
C1860  C     0.34060   0.11950   0.84060   0.01267  Uiso   1.00
H1861  H     0.83250   0.60060   0.83250   0.01267  Uiso   1.00
C1862  C     0.84060   0.61950   0.84060   0.01267  Uiso   1.00
H1863  H     0.83250   0.10060   0.33250   0.01267  Uiso   1.00
C1864  C     0.84060   0.11950   0.34060   0.01267  Uiso   1.00
H1865  H     0.33250   0.39940   0.66750   0.01267  Uiso   1.00
C1866  C     0.34060   0.38050   0.65940   0.01267  Uiso   1.00
H1867  H     0.33250   0.89940   0.16750   0.01267  Uiso   1.00
C1868  C     0.34060   0.88050   0.15940   0.01267  Uiso   1.00
H1869  H     0.83250   0.39940   0.16750   0.01267  Uiso   1.00
C1870  C     0.84060   0.38050   0.15940   0.01267  Uiso   1.00
H1871  H     0.83250   0.89940   0.66750   0.01267  Uiso   1.00
C1872  C     0.84060   0.88050   0.65940   0.01267  Uiso   1.00
H1873  H     0.66750   0.39940   0.33250   0.01267  Uiso   1.00
C1874  C     0.65940   0.38050   0.34060   0.01267  Uiso   1.00
H1875  H     0.66750   0.89940   0.83250   0.01267  Uiso   1.00
C1876  C     0.65940   0.88050   0.84060   0.01267  Uiso   1.00
H1877  H     0.16750   0.39940   0.83250   0.01267  Uiso   1.00
C1878  C     0.15940   0.38050   0.84060   0.01267  Uiso   1.00
H1879  H     0.16750   0.89940   0.33250   0.01267  Uiso   1.00
C1880  C     0.15940   0.88050   0.34060   0.01267  Uiso   1.00
H1881  H     0.66750   0.60060   0.66750   0.01267  Uiso   1.00
C1882  C     0.65940   0.61950   0.65940   0.01267  Uiso   1.00
H1883  H     0.66750   0.10060   0.16750   0.01267  Uiso   1.00
C1884  C     0.65940   0.11950   0.15940   0.01267  Uiso   1.00
H1885  H     0.16750   0.60060   0.16750   0.01267  Uiso   1.00
C1886  C     0.15940   0.61950   0.15940   0.01267  Uiso   1.00
H1887  H     0.16750   0.10060   0.66750   0.01267  Uiso   1.00
C1888  C     0.15940   0.11950   0.65940   0.01267  Uiso   1.00
H1889  H     0.33250   0.33250   0.60060   0.01267  Uiso   1.00
C1890  C     0.34060   0.34060   0.61950   0.01267  Uiso   1.00
H1891  H     0.33250   0.83250   0.10060   0.01267  Uiso   1.00
C1892  C     0.34060   0.84060   0.11950   0.01267  Uiso   1.00
H1893  H     0.83250   0.33250   0.10060   0.01267  Uiso   1.00
C1894  C     0.84060   0.34060   0.11950   0.01267  Uiso   1.00
H1895  H     0.83250   0.83250   0.60060   0.01267  Uiso   1.00
C1896  C     0.84060   0.84060   0.61950   0.01267  Uiso   1.00
H1897  H     0.66750   0.33250   0.39940   0.01267  Uiso   1.00
C1898  C     0.65940   0.34060   0.38050   0.01267  Uiso   1.00
H1899  H     0.66750   0.83250   0.89940   0.01267  Uiso   1.00
C1900  C     0.65940   0.84060   0.88050   0.01267  Uiso   1.00
H1901  H     0.16750   0.33250   0.89940   0.01267  Uiso   1.00
C1902  C     0.15940   0.34060   0.88050   0.01267  Uiso   1.00
H1903  H     0.16750   0.83250   0.39940   0.01267  Uiso   1.00
C1904  C     0.15940   0.84060   0.38050   0.01267  Uiso   1.00
H1905  H     0.33250   0.66750   0.39940   0.01267  Uiso   1.00
C1906  C     0.34060   0.65940   0.38050   0.01267  Uiso   1.00
H1907  H     0.33250   0.16750   0.89940   0.01267  Uiso   1.00
C1908  C     0.34060   0.15940   0.88050   0.01267  Uiso   1.00
H1909  H     0.83250   0.66750   0.89940   0.01267  Uiso   1.00
C1910  C     0.84060   0.65940   0.88050   0.01267  Uiso   1.00
H1911  H     0.83250   0.16750   0.39940   0.01267  Uiso   1.00
C1912  C     0.84060   0.15940   0.38050   0.01267  Uiso   1.00
H1913  H     0.66750   0.66750   0.60060   0.01267  Uiso   1.00
C1914  C     0.65940   0.65940   0.61950   0.01267  Uiso   1.00
H1915  H     0.66750   0.16750   0.10060   0.01267  Uiso   1.00
C1916  C     0.65940   0.15940   0.11950   0.01267  Uiso   1.00
H1917  H     0.16750   0.66750   0.10060   0.01267  Uiso   1.00
C1918  C     0.15940   0.65940   0.11950   0.01267  Uiso   1.00
H1919  H     0.16750   0.16750   0.60060   0.01267  Uiso   1.00
C1920  C     0.15940   0.15940   0.61950   0.01267  Uiso   1.00
H1921  H     0.33250   0.60060   0.66750   0.01267  Uiso   1.00
C1922  C     0.34060   0.61950   0.65940   0.01267  Uiso   1.00
H1923  H     0.33250   0.10060   0.16750   0.01267  Uiso   1.00
C1924  C     0.34060   0.11950   0.15940   0.01267  Uiso   1.00
H1925  H     0.83250   0.60060   0.16750   0.01267  Uiso   1.00
C1926  C     0.84060   0.61950   0.15940   0.01267  Uiso   1.00
H1927  H     0.83250   0.10060   0.66750   0.01267  Uiso   1.00
C1928  C     0.84060   0.11950   0.65940   0.01267  Uiso   1.00
H1929  H     0.66750   0.39940   0.66750   0.01267  Uiso   1.00
C1930  C     0.65940   0.38050   0.65940   0.01267  Uiso   1.00
H1931  H     0.66750   0.89940   0.16750   0.01267  Uiso   1.00
C1932  C     0.65940   0.88050   0.15940   0.01267  Uiso   1.00
H1933  H     0.16750   0.39940   0.16750   0.01267  Uiso   1.00
C1934  C     0.15940   0.38050   0.15940   0.01267  Uiso   1.00
H1935  H     0.16750   0.89940   0.66750   0.01267  Uiso   1.00
C1936  C     0.15940   0.88050   0.65940   0.01267  Uiso   1.00
H1937  H     0.33250   0.39940   0.33250   0.01267  Uiso   1.00
C1938  C     0.34060   0.38050   0.34060   0.01267  Uiso   1.00
H1939  H     0.33250   0.89940   0.83250   0.01267  Uiso   1.00
C1940  C     0.34060   0.88050   0.84060   0.01267  Uiso   1.00
H1941  H     0.83250   0.39940   0.83250   0.01267  Uiso   1.00
C1942  C     0.84060   0.38050   0.84060   0.01267  Uiso   1.00
H1943  H     0.83250   0.89940   0.33250   0.01267  Uiso   1.00
C1944  C     0.84060   0.88050   0.34060   0.01267  Uiso   1.00
H1945  H     0.66750   0.60060   0.33250   0.01267  Uiso   1.00
C1946  C     0.65940   0.61950   0.34060   0.01267  Uiso   1.00
H1947  H     0.66750   0.10060   0.83250   0.01267  Uiso   1.00
C1948  C     0.65940   0.11950   0.84060   0.01267  Uiso   1.00
H1949  H     0.16750   0.60060   0.83250   0.01267  Uiso   1.00
C1950  C     0.15940   0.61950   0.84060   0.01267  Uiso   1.00
H1951  H     0.16750   0.10060   0.33250   0.01267  Uiso   1.00
C1952  C     0.15940   0.11950   0.34060   0.01267  Uiso   1.00
H1953  H     0.60060   0.33250   0.66750   0.01267  Uiso   1.00
C1954  C     0.61950   0.34060   0.65940   0.01267  Uiso   1.00
H1955  H     0.60060   0.83250   0.16750   0.01267  Uiso   1.00
C1956  C     0.61950   0.84060   0.15940   0.01267  Uiso   1.00
H1957  H     0.10060   0.33250   0.16750   0.01267  Uiso   1.00
C1958  C     0.11950   0.34060   0.15940   0.01267  Uiso   1.00
H1959  H     0.10060   0.83250   0.66750   0.01267  Uiso   1.00
C1960  C     0.11950   0.84060   0.65940   0.01267  Uiso   1.00
H1961  H     0.39940   0.33250   0.33250   0.01267  Uiso   1.00
C1962  C     0.38050   0.34060   0.34060   0.01267  Uiso   1.00
H1963  H     0.39940   0.83250   0.83250   0.01267  Uiso   1.00
C1964  C     0.38050   0.84060   0.84060   0.01267  Uiso   1.00
H1965  H     0.89940   0.33250   0.83250   0.01267  Uiso   1.00
C1966  C     0.88050   0.34060   0.84060   0.01267  Uiso   1.00
H1967  H     0.89940   0.83250   0.33250   0.01267  Uiso   1.00
C1968  C     0.88050   0.84060   0.34060   0.01267  Uiso   1.00
H1969  H     0.39940   0.66750   0.66750   0.01267  Uiso   1.00
C1970  C     0.38050   0.65940   0.65940   0.01267  Uiso   1.00
H1971  H     0.39940   0.16750   0.16750   0.01267  Uiso   1.00
C1972  C     0.38050   0.15940   0.15940   0.01267  Uiso   1.00
H1973  H     0.89940   0.66750   0.16750   0.01267  Uiso   1.00
C1974  C     0.88050   0.65940   0.15940   0.01267  Uiso   1.00
H1975  H     0.89940   0.16750   0.66750   0.01267  Uiso   1.00
C1976  C     0.88050   0.15940   0.65940   0.01267  Uiso   1.00
H1977  H     0.60060   0.66750   0.33250   0.01267  Uiso   1.00
C1978  C     0.61950   0.65940   0.34060   0.01267  Uiso   1.00
H1979  H     0.60060   0.16750   0.83250   0.01267  Uiso   1.00
C1980  C     0.61950   0.15940   0.84060   0.01267  Uiso   1.00
H1981  H     0.10060   0.66750   0.83250   0.01267  Uiso   1.00
C1982  C     0.11950   0.65940   0.84060   0.01267  Uiso   1.00
H1983  H     0.10060   0.16750   0.33250   0.01267  Uiso   1.00
C1984  C     0.11950   0.15940   0.34060   0.01267  Uiso   1.00
H1985  H     0.33250   0.33250   0.39940   0.01267  Uiso   1.00
C1986  C     0.34060   0.34060   0.38050   0.01267  Uiso   1.00
H1987  H     0.33250   0.83250   0.89940   0.01267  Uiso   1.00
C1988  C     0.34060   0.84060   0.88050   0.01267  Uiso   1.00
H1989  H     0.83250   0.33250   0.89940   0.01267  Uiso   1.00
C1990  C     0.84060   0.34060   0.88050   0.01267  Uiso   1.00
H1991  H     0.83250   0.83250   0.39940   0.01267  Uiso   1.00
C1992  C     0.84060   0.84060   0.38050   0.01267  Uiso   1.00
H1993  H     0.33250   0.66750   0.60060   0.01267  Uiso   1.00
C1994  C     0.34060   0.65940   0.61950   0.01267  Uiso   1.00
H1995  H     0.33250   0.16750   0.10060   0.01267  Uiso   1.00
C1996  C     0.34060   0.15940   0.11950   0.01267  Uiso   1.00
H1997  H     0.83250   0.66750   0.10060   0.01267  Uiso   1.00
C1998  C     0.84060   0.65940   0.11950   0.01267  Uiso   1.00
H1999  H     0.83250   0.16750   0.60060   0.01267  Uiso   1.00
C2000  C     0.84060   0.15940   0.61950   0.01267  Uiso   1.00
H2001  H     0.66750   0.33250   0.60060   0.01267  Uiso   1.00
C2002  C     0.65940   0.34060   0.61950   0.01267  Uiso   1.00
H2003  H     0.66750   0.83250   0.10060   0.01267  Uiso   1.00
C2004  C     0.65940   0.84060   0.11950   0.01267  Uiso   1.00
H2005  H     0.16750   0.33250   0.10060   0.01267  Uiso   1.00
C2006  C     0.15940   0.34060   0.11950   0.01267  Uiso   1.00
H2007  H     0.16750   0.83250   0.60060   0.01267  Uiso   1.00
C2008  C     0.15940   0.84060   0.61950   0.01267  Uiso   1.00
H2009  H     0.66750   0.66750   0.39940   0.01267  Uiso   1.00
C2010  C     0.65940   0.65940   0.38050   0.01267  Uiso   1.00
H2011  H     0.66750   0.16750   0.89940   0.01267  Uiso   1.00
C2012  C     0.65940   0.15940   0.88050   0.01267  Uiso   1.00
H2013  H     0.16750   0.66750   0.89940   0.01267  Uiso   1.00
C2014  C     0.15940   0.65940   0.88050   0.01267  Uiso   1.00
H2015  H     0.16750   0.16750   0.39940   0.01267  Uiso   1.00
C2016  C     0.15940   0.15940   0.38050   0.01267  Uiso   1.00
loop_
_geom_bond_atom_site_label_1
_geom_bond_atom_site_label_2
_geom_bond_distance
_geom_bond_site_symmetry_2
_ccdc_geom_bond_type
H1     C4      0.949   .     S
C2     C3      1.458   .     S
C2     O5      1.250   .     D
C2     O6      1.251   .     S
C3     C4      1.397   .     D
C3     C1250   1.386   .     S
C4     C1251   1.389   .     S
O5     Zn1159  2.025   .     S
O6     Zn1160  2.031   .     S
H7     C10     0.949   .     S
C8     C9      1.458   .     S
C8     O11     1.250   .     D
C8     O12     1.251   .     S
C9     C10     1.397   .     D
C9     C1256   1.386   .     S
C10    C1257   1.389   .     S
O11    Zn1157  2.025   .     S
O12    Zn1158  2.031   .     S
H13    C16     0.949   .     S
C14    C15     1.458   .     S
C14    O17     1.250   .     D
C14    O18     1.251   .     S
C15    C16     1.397   .     D
C15    C1262   1.386   .     S
C16    C1263   1.389   .     S
O17    Zn1155  2.025   .     S
O18    Zn1156  2.031   .     S
H19    C22     0.949   .     S
C20    C21     1.458   .     S
C20    O23     1.250   .     D
C20    O24     1.251   .     S
C21    C22     1.397   .     D
C21    C1268   1.386   .     S
C22    C1269   1.389   .     S
O23    Zn1153  2.025   .     S
O24    Zn1154  2.031   .     S
H25    C28     0.949   .     S
C26    C27     1.458   .     S
C26    O29     1.250   .     D
C26    O30     1.251   .     S
C27    C28     1.397   .     D
C27    C1274   1.386   .     S
C28    C1275   1.389   .     S
O29    Zn1167  2.025   .     S
O30    Zn1168  2.031   .     S
H31    C34     0.949   .     S
C32    C33     1.458   .     S
C32    O35     1.250   .     D
C32    O36     1.251   .     S
C33    C34     1.397   .     D
C33    C1280   1.386   .     S
C34    C1281   1.389   .     S
O35    Zn1165  2.025   .     S
O36    Zn1166  2.031   .     S
H37    C40     0.949   .     S
C38    C39     1.458   .     S
C38    O41     1.250   .     D
C38    O42     1.251   .     S
C39    C40     1.397   .     D
C39    C1286   1.386   .     S
C40    C1287   1.389   .     S
O41    Zn1163  2.025   1_655 S
O42    Zn1164  2.031   1_655 S
H43    C46     0.949   .     S
C44    C45     1.458   .     S
C44    O47     1.250   .     D
C44    O48     1.251   .     S
C45    C46     1.397   .     D
C45    C1292   1.386   .     S
C46    C1293   1.389   .     S
O47    Zn1161  2.025   1_655 S
O48    Zn1162  2.031   1_655 S
H49    C52     0.949   .     S
C50    C51     1.458   .     S
C50    O53     1.250   .     D
C50    O54     1.251   .     S
C51    C52     1.397   .     D
C51    C1298   1.386   .     S
C52    C1299   1.389   .     S
O53    Zn1175  2.025   .     S
O54    Zn1176  2.031   .     S
H55    C58     0.949   .     S
C56    C57     1.458   .     S
C56    O59     1.250   .     D
C56    O60     1.251   .     S
C57    C58     1.397   .     D
C57    C1304   1.386   .     S
C58    C1305   1.389   .     S
O59    Zn1173  2.025   .     S
O60    Zn1174  2.031   .     S
H61    C64     0.949   .     S
C62    C63     1.458   .     S
C62    O65     1.250   .     D
C62    O66     1.251   .     S
C63    C64     1.397   .     D
C63    C1310   1.386   .     S
C64    C1311   1.389   .     S
O65    Zn1171  2.025   1_655 S
O66    Zn1172  2.031   1_655 S
H67    C70     0.949   .     S
C68    C69     1.458   .     S
C68    O71     1.250   .     D
C68    O72     1.251   .     S
C69    C70     1.397   .     D
C69    C1316   1.386   .     S
C70    C1317   1.389   .     S
O71    Zn1169  2.025   1_655 S
O72    Zn1170  2.031   1_655 S
H73    C76     0.949   .     S
C74    C75     1.458   .     S
C74    O77     1.250   .     D
C74    O78     1.251   .     S
C75    C76     1.397   .     D
C75    C1322   1.386   .     S
C76    C1323   1.389   .     S
O77    Zn1183  2.025   .     S
O78    Zn1184  2.031   .     S
H79    C82     0.949   .     S
C80    C81     1.458   .     S
C80    O83     1.250   .     D
C80    O84     1.251   .     S
C81    C82     1.397   .     D
C81    C1328   1.386   .     S
C82    C1329   1.389   .     S
O83    Zn1181  2.025   .     S
O84    Zn1182  2.031   .     S
H85    C88     0.949   .     S
C86    C87     1.458   .     S
C86    O89     1.250   .     D
C86    O90     1.251   .     S
C87    C88     1.397   .     D
C87    C1334   1.386   .     S
C88    C1335   1.389   .     S
O89    Zn1179  2.025   .     S
O90    Zn1180  2.031   .     S
H91    C94     0.949   .     S
C92    C93     1.458   .     S
C92    O95     1.250   .     D
C92    O96     1.251   .     S
C93    C94     1.397   .     D
C93    C1340   1.386   .     S
C94    C1341   1.389   .     S
O95    Zn1177  2.025   .     S
O96    Zn1178  2.031   .     S
H97    C100    0.949   .     S
C98    C99     1.458   .     S
C98    O101    1.250   .     D
C98    O102    1.251   .     S
C99    C100    1.397   .     D
C99    C1346   1.386   .     S
C100   C1347   1.389   .     S
O101   Zn1187  2.025   .     S
O102   Zn1188  2.031   .     S
H103   C106    0.949   .     S
C104   C105    1.458   .     S
C104   O107    1.250   .     D
C104   O108    1.251   .     S
C105   C106    1.397   .     D
C105   C1352   1.386   .     S
C106   C1353   1.389   .     S
O107   Zn1185  2.025   .     S
O108   Zn1186  2.031   .     S
H109   C112    0.949   .     S
C110   C111    1.458   .     S
C110   O113    1.250   .     D
C110   O114    1.251   .     S
C111   C112    1.397   .     D
C111   C1358   1.386   .     S
C112   C1359   1.389   .     S
O113   Zn1191  2.025   .     S
O114   Zn1192  2.031   .     S
H115   C118    0.949   .     S
C116   C117    1.458   .     S
C116   O119    1.250   .     D
C116   O120    1.251   .     S
C117   C118    1.397   .     D
C117   C1364   1.386   .     S
C118   C1365   1.389   .     S
O119   Zn1189  2.025   .     S
O120   Zn1190  2.031   .     S
H121   C124    0.949   .     S
C122   C123    1.458   .     S
C122   O125    1.250   .     D
C122   O126    1.251   .     S
C123   C124    1.397   .     D
C123   C1370   1.386   .     S
C124   C1371   1.389   .     S
O125   Zn1195  2.025   .     S
O126   Zn1196  2.031   .     S
H127   C130    0.949   .     S
C128   C129    1.458   .     S
C128   O131    1.250   .     D
C128   O132    1.251   .     S
C129   C130    1.397   .     D
C129   C1376   1.386   .     S
C130   C1377   1.389   .     S
O131   Zn1193  2.025   1_565 S
O132   Zn1194  2.031   1_565 S
H133   C136    0.949   .     S
C134   C135    1.458   .     S
C134   O137    1.250   .     D
C134   O138    1.251   .     S
C135   C136    1.397   .     D
C135   C1382   1.386   .     S
C136   C1383   1.389   .     S
O137   Zn1199  2.025   .     S
O138   Zn1200  2.031   .     S
H139   C142    0.949   .     S
C140   C141    1.458   .     S
C140   O143    1.250   .     D
C140   O144    1.251   .     S
C141   C142    1.397   .     D
C141   C1388   1.386   .     S
C142   C1389   1.389   .     S
O143   Zn1197  2.025   1_565 S
O144   Zn1198  2.031   1_565 S
H145   C148    0.949   .     S
C146   C147    1.458   .     S
C146   O149    1.250   .     D
C146   O150    1.251   .     S
C147   C148    1.397   .     D
C147   C1394   1.386   .     S
C148   C1395   1.389   .     S
O149   Zn1203  2.025   .     S
O150   Zn1204  2.031   .     S
H151   C154    0.949   .     S
C152   C153    1.458   .     S
C152   O155    1.250   .     D
C152   O156    1.251   .     S
C153   C154    1.397   .     D
C153   C1400   1.386   .     S
C154   C1401   1.389   .     S
O155   Zn1201  2.025   1_565 S
O156   Zn1202  2.031   1_565 S
H157   C160    0.949   .     S
C158   C159    1.458   .     S
C158   O161    1.250   .     D
C158   O162    1.251   .     S
C159   C160    1.397   .     D
C159   C1406   1.386   .     S
C160   C1407   1.389   .     S
O161   Zn1207  2.025   .     S
O162   Zn1208  2.031   .     S
H163   C166    0.949   .     S
C164   C165    1.458   .     S
C164   O167    1.250   .     D
C164   O168    1.251   .     S
C165   C166    1.397   .     D
C165   C1412   1.386   .     S
C166   C1413   1.389   .     S
O167   Zn1205  2.025   1_565 S
O168   Zn1206  2.031   1_565 S
H169   C172    0.949   .     S
C170   C171    1.458   .     S
C170   O173    1.250   .     D
C170   O174    1.251   .     S
C171   C172    1.397   .     D
C171   C1418   1.386   .     S
C172   C1419   1.389   .     S
O173   Zn1211  2.025   .     S
O174   Zn1212  2.031   .     S
H175   C178    0.949   .     S
C176   C177    1.458   .     S
C176   O179    1.250   .     D
C176   O180    1.251   .     S
C177   C178    1.397   .     D
C177   C1424   1.386   .     S
C178   C1425   1.389   .     S
O179   Zn1209  2.025   .     S
O180   Zn1210  2.031   .     S
H181   C184    0.949   .     S
C182   C183    1.458   .     S
C182   O185    1.250   .     D
C182   O186    1.251   .     S
C183   C184    1.397   .     D
C183   C1430   1.386   .     S
C184   C1431   1.389   .     S
O185   Zn1215  2.025   .     S
O186   Zn1216  2.031   .     S
H187   C190    0.949   .     S
C188   C189    1.458   .     S
C188   O191    1.250   .     D
C188   O192    1.251   .     S
C189   C190    1.397   .     D
C189   C1436   1.386   .     S
C190   C1437   1.389   .     S
O191   Zn1213  2.025   .     S
O192   Zn1214  2.031   .     S
H193   C196    0.949   .     S
C194   C195    1.458   .     S
C194   O197    1.250   .     D
C194   O198    1.251   .     S
C195   C196    1.397   .     D
C195   C1442   1.386   .     S
C196   C1443   1.389   .     S
O197   Zn1221  2.025   .     S
O198   Zn1222  2.031   .     S
H199   C202    0.949   .     S
C200   C201    1.458   .     S
C200   O203    1.250   .     D
C200   O204    1.251   .     S
C201   C202    1.397   .     D
C201   C1448   1.386   .     S
C202   C1449   1.389   .     S
O203   Zn1223  2.025   .     S
O204   Zn1224  2.031   .     S
H205   C208    0.949   .     S
C206   C207    1.458   .     S
C206   O209    1.250   .     D
C206   O210    1.251   .     S
C207   C208    1.397   .     D
C207   C1454   1.386   .     S
C208   C1455   1.389   .     S
O209   Zn1217  2.025   .     S
O210   Zn1218  2.031   .     S
H211   C214    0.949   .     S
C212   C213    1.458   .     S
C212   O215    1.250   .     D
C212   O216    1.251   .     S
C213   C214    1.397   .     D
C213   C1460   1.386   .     S
C214   C1461   1.389   .     S
O215   Zn1219  2.025   .     S
O216   Zn1220  2.031   .     S
H217   C220    0.949   .     S
C218   C219    1.458   .     S
C218   O221    1.250   .     D
C218   O222    1.251   .     S
C219   C220    1.397   .     D
C219   C1466   1.386   .     S
C220   C1467   1.389   .     S
O221   Zn1229  2.025   .     S
O222   Zn1230  2.031   .     S
H223   C226    0.949   .     S
C224   C225    1.458   .     S
C224   O227    1.250   .     D
C224   O228    1.251   .     S
C225   C226    1.397   .     D
C225   C1472   1.386   .     S
C226   C1473   1.389   .     S
O227   Zn1231  2.025   1_556 S
O228   Zn1232  2.031   1_556 S
H229   C232    0.949   .     S
C230   C231    1.458   .     S
C230   O233    1.250   .     D
C230   O234    1.251   .     S
C231   C232    1.397   .     D
C231   C1478   1.386   .     S
C232   C1479   1.389   .     S
O233   Zn1225  2.025   1_556 S
O234   Zn1226  2.031   1_556 S
H235   C238    0.949   .     S
C236   C237    1.458   .     S
C236   O239    1.250   .     D
C236   O240    1.251   .     S
C237   C238    1.397   .     D
C237   C1484   1.386   .     S
C238   C1485   1.389   .     S
O239   Zn1227  2.025   .     S
O240   Zn1228  2.031   .     S
H241   C244    0.949   .     S
C242   C243    1.458   .     S
C242   O245    1.250   .     D
C242   O246    1.251   .     S
C243   C244    1.397   .     D
C243   C1490   1.386   .     S
C244   C1491   1.389   .     S
O245   Zn1237  2.025   .     S
O246   Zn1238  2.031   .     S
H247   C250    0.949   .     S
C248   C249    1.458   .     S
C248   O251    1.250   .     D
C248   O252    1.251   .     S
C249   C250    1.397   .     D
C249   C1496   1.386   .     S
C250   C1497   1.389   .     S
O251   Zn1239  2.025   1_556 S
O252   Zn1240  2.031   1_556 S
H253   C256    0.949   .     S
C254   C255    1.458   .     S
C254   O257    1.250   .     D
C254   O258    1.251   .     S
C255   C256    1.397   .     D
C255   C1502   1.386   .     S
C256   C1503   1.389   .     S
O257   Zn1233  2.025   1_556 S
O258   Zn1234  2.031   1_556 S
H259   C262    0.949   .     S
C260   C261    1.458   .     S
C260   O263    1.250   .     D
C260   O264    1.251   .     S
C261   C262    1.397   .     D
C261   C1508   1.386   .     S
C262   C1509   1.389   .     S
O263   Zn1235  2.025   .     S
O264   Zn1236  2.031   .     S
H265   C268    0.949   .     S
C266   C267    1.458   .     S
C266   O269    1.250   .     D
C266   O270    1.251   .     S
C267   C268    1.397   .     D
C267   C1514   1.386   .     S
C268   C1515   1.389   .     S
O269   Zn1245  2.025   .     S
O270   Zn1246  2.031   .     S
H271   C274    0.949   .     S
C272   C273    1.458   .     S
C272   O275    1.250   .     D
C272   O276    1.251   .     S
C273   C274    1.397   .     D
C273   C1520   1.386   .     S
C274   C1521   1.389   .     S
O275   Zn1247  2.025   .     S
O276   Zn1248  2.031   .     S
H277   C280    0.949   .     S
C278   C279    1.458   .     S
C278   O281    1.250   .     D
C278   O282    1.251   .     S
C279   C280    1.397   .     D
C279   C1526   1.386   .     S
C280   C1527   1.389   .     S
O281   Zn1241  2.025   .     S
O282   Zn1242  2.031   .     S
H283   C286    0.949   .     S
C284   C285    1.458   .     S
C284   O287    1.250   .     D
C284   O288    1.251   .     S
C285   C286    1.397   .     D
C285   C1532   1.386   .     S
C286   C1533   1.389   .     S
O287   Zn1243  2.025   .     S
O288   Zn1244  2.031   .     S
H289   C292    0.949   .     S
C290   C291    1.458   .     S
C290   O293    1.250   .     D
C290   O294    1.251   .     S
C291   C292    1.397   .     D
C291   C1538   1.386   .     S
C292   C1539   1.389   .     S
O293   Zn1207  2.025   .     S
O294   Zn1208  2.031   .     S
H295   C298    0.949   .     S
C296   C297    1.458   .     S
C296   O299    1.250   .     D
C296   O300    1.251   .     S
C297   C298    1.397   .     D
C297   C1544   1.386   .     S
C298   C1545   1.389   .     S
O299   Zn1205  2.025   .     S
O300   Zn1206  2.031   .     S
H301   C304    0.949   .     S
C302   C303    1.458   .     S
C302   O305    1.250   .     D
C302   O306    1.251   .     S
C303   C304    1.397   .     D
C303   C1550   1.386   .     S
C304   C1551   1.389   .     S
O305   Zn1203  2.025   .     S
O306   Zn1204  2.031   .     S
H307   C310    0.949   .     S
C308   C309    1.458   .     S
C308   O311    1.250   .     D
C308   O312    1.251   .     S
C309   C310    1.397   .     D
C309   C1556   1.386   .     S
C310   C1557   1.389   .     S
O311   Zn1201  2.025   .     S
O312   Zn1202  2.031   .     S
H313   C316    0.949   .     S
C314   C315    1.458   .     S
C314   O317    1.250   .     D
C314   O318    1.251   .     S
C315   C316    1.397   .     D
C315   C1562   1.386   .     S
C316   C1563   1.389   .     S
O317   Zn1191  2.025   .     S
O318   Zn1192  2.031   .     S
H319   C322    0.949   .     S
C320   C321    1.458   .     S
C320   O323    1.250   .     D
C320   O324    1.251   .     S
C321   C322    1.397   .     D
C321   C1568   1.386   .     S
C322   C1569   1.389   .     S
O323   Zn1189  2.025   1_565 S
O324   Zn1190  2.031   1_565 S
H325   C328    0.949   .     S
C326   C327    1.458   .     S
C326   O329    1.250   .     D
C326   O330    1.251   .     S
C327   C328    1.397   .     D
C327   C1574   1.386   .     S
C328   C1575   1.389   .     S
O329   Zn1187  2.025   .     S
O330   Zn1188  2.031   .     S
H331   C334    0.949   .     S
C332   C333    1.458   .     S
C332   O335    1.250   .     D
C332   O336    1.251   .     S
C333   C334    1.397   .     D
C333   C1580   1.386   .     S
C334   C1581   1.389   .     S
O335   Zn1185  2.025   1_565 S
O336   Zn1186  2.031   1_565 S
H337   C340    0.949   .     S
C338   C339    1.458   .     S
C338   O341    1.250   .     D
C338   O342    1.251   .     S
C339   C340    1.397   .     D
C339   C1586   1.386   .     S
C340   C1587   1.389   .     S
O341   Zn1215  2.025   .     S
O342   Zn1216  2.031   .     S
H343   C346    0.949   .     S
C344   C345    1.458   .     S
C344   O347    1.250   .     D
C344   O348    1.251   .     S
C345   C346    1.397   .     D
C345   C1592   1.386   .     S
C346   C1593   1.389   .     S
O347   Zn1213  2.025   1_565 S
O348   Zn1214  2.031   1_565 S
H349   C352    0.949   .     S
C350   C351    1.458   .     S
C350   O353    1.250   .     D
C350   O354    1.251   .     S
C351   C352    1.397   .     D
C351   C1598   1.386   .     S
C352   C1599   1.389   .     S
O353   Zn1211  2.025   .     S
O354   Zn1212  2.031   .     S
H355   C358    0.949   .     S
C356   C357    1.458   .     S
C356   O359    1.250   .     D
C356   O360    1.251   .     S
C357   C358    1.397   .     D
C357   C1604   1.386   .     S
C358   C1605   1.389   .     S
O359   Zn1209  2.025   1_565 S
O360   Zn1210  2.031   1_565 S
H361   C364    0.949   .     S
C362   C363    1.458   .     S
C362   O365    1.250   .     D
C362   O366    1.251   .     S
C363   C364    1.397   .     D
C363   C1610   1.386   .     S
C364   C1611   1.389   .     S
O365   Zn1199  2.025   .     S
O366   Zn1200  2.031   .     S
H367   C370    0.949   .     S
C368   C369    1.458   .     S
C368   O371    1.250   .     D
C368   O372    1.251   .     S
C369   C370    1.397   .     D
C369   C1616   1.386   .     S
C370   C1617   1.389   .     S
O371   Zn1197  2.025   .     S
O372   Zn1198  2.031   .     S
H373   C376    0.949   .     S
C374   C375    1.458   .     S
C374   O377    1.250   .     D
C374   O378    1.251   .     S
C375   C376    1.397   .     D
C375   C1622   1.386   .     S
C376   C1623   1.389   .     S
O377   Zn1195  2.025   .     S
O378   Zn1196  2.031   .     S
H379   C382    0.949   .     S
C380   C381    1.458   .     S
C380   O383    1.250   .     D
C380   O384    1.251   .     S
C381   C382    1.397   .     D
C381   C1628   1.386   .     S
C382   C1629   1.389   .     S
O383   Zn1193  2.025   .     S
O384   Zn1194  2.031   .     S
H385   C388    0.949   .     S
C386   C387    1.458   .     S
C386   O389    1.250   .     D
C386   O390    1.251   .     S
C387   C388    1.397   .     D
C387   C1634   1.386   .     S
C388   C1635   1.389   .     S
O389   Zn1165  2.025   .     S
O390   Zn1166  2.031   .     S
H391   C394    0.949   .     S
C392   C393    1.458   .     S
C392   O395    1.250   .     D
C392   O396    1.251   .     S
C393   C394    1.397   .     D
C393   C1640   1.386   .     S
C394   C1641   1.389   .     S
O395   Zn1167  2.025   .     S
O396   Zn1168  2.031   .     S
H397   C400    0.949   .     S
C398   C399    1.458   .     S
C398   O401    1.250   .     D
C398   O402    1.251   .     S
C399   C400    1.397   .     D
C399   C1646   1.386   .     S
C400   C1647   1.389   .     S
O401   Zn1161  2.025   .     S
O402   Zn1162  2.031   .     S
H403   C406    0.949   .     S
C404   C405    1.458   .     S
C404   O407    1.250   .     D
C404   O408    1.251   .     S
C405   C406    1.397   .     D
C405   C1652   1.386   .     S
C406   C1653   1.389   .     S
O407   Zn1163  2.025   .     S
O408   Zn1164  2.031   .     S
H409   C412    0.949   .     S
C410   C411    1.458   .     S
C410   O413    1.250   .     D
C410   O414    1.251   .     S
C411   C412    1.397   .     D
C411   C1658   1.386   .     S
C412   C1659   1.389   .     S
O413   Zn1181  2.025   .     S
O414   Zn1182  2.031   .     S
H415   C418    0.949   .     S
C416   C417    1.458   .     S
C416   O419    1.250   .     D
C416   O420    1.251   .     S
C417   C418    1.397   .     D
C417   C1664   1.386   .     S
C418   C1665   1.389   .     S
O419   Zn1183  2.025   .     S
O420   Zn1184  2.031   .     S
H421   C424    0.949   .     S
C422   C423    1.458   .     S
C422   O425    1.250   .     D
C422   O426    1.251   .     S
C423   C424    1.397   .     D
C423   C1670   1.386   .     S
C424   C1671   1.389   .     S
O425   Zn1177  2.025   1_655 S
O426   Zn1178  2.031   1_655 S
H427   C430    0.949   .     S
C428   C429    1.458   .     S
C428   O431    1.250   .     D
C428   O432    1.251   .     S
C429   C430    1.397   .     D
C429   C1676   1.386   .     S
C430   C1677   1.389   .     S
O431   Zn1179  2.025   1_655 S
O432   Zn1180  2.031   1_655 S
H433   C436    0.949   .     S
C434   C435    1.458   .     S
C434   O437    1.250   .     D
C434   O438    1.251   .     S
C435   C436    1.397   .     D
C435   C1682   1.386   .     S
C436   C1683   1.389   .     S
O437   Zn1157  2.025   .     S
O438   Zn1158  2.031   .     S
H439   C442    0.949   .     S
C440   C441    1.458   .     S
C440   O443    1.250   .     D
C440   O444    1.251   .     S
C441   C442    1.397   .     D
C441   C1688   1.386   .     S
C442   C1689   1.389   .     S
O443   Zn1159  2.025   .     S
O444   Zn1160  2.031   .     S
H445   C448    0.949   .     S
C446   C447    1.458   .     S
C446   O449    1.250   .     D
C446   O450    1.251   .     S
C447   C448    1.397   .     D
C447   C1694   1.386   .     S
C448   C1695   1.389   .     S
O449   Zn1153  2.025   1_655 S
O450   Zn1154  2.031   1_655 S
H451   C454    0.949   .     S
C452   C453    1.458   .     S
C452   O455    1.250   .     D
C452   O456    1.251   .     S
C453   C454    1.397   .     D
C453   C1700   1.386   .     S
C454   C1701   1.389   .     S
O455   Zn1155  2.025   1_655 S
O456   Zn1156  2.031   1_655 S
H457   C460    0.949   .     S
C458   C459    1.458   .     S
C458   O461    1.250   .     D
C458   O462    1.251   .     S
C459   C460    1.397   .     D
C459   C1706   1.386   .     S
C460   C1707   1.389   .     S
O461   Zn1173  2.025   .     S
O462   Zn1174  2.031   .     S
H463   C466    0.949   .     S
C464   C465    1.458   .     S
C464   O467    1.250   .     D
C464   O468    1.251   .     S
C465   C466    1.397   .     D
C465   C1712   1.386   .     S
C466   C1713   1.389   .     S
O467   Zn1175  2.025   .     S
O468   Zn1176  2.031   .     S
H469   C472    0.949   .     S
C470   C471    1.458   .     S
C470   O473    1.250   .     D
C470   O474    1.251   .     S
C471   C472    1.397   .     D
C471   C1718   1.386   .     S
C472   C1719   1.389   .     S
O473   Zn1169  2.025   .     S
O474   Zn1170  2.031   .     S
H475   C478    0.949   .     S
C476   C477    1.458   .     S
C476   O479    1.250   .     D
C476   O480    1.251   .     S
C477   C478    1.397   .     D
C477   C1724   1.386   .     S
C478   C1725   1.389   .     S
O479   Zn1171  2.025   .     S
O480   Zn1172  2.031   .     S
H481   C484    0.949   .     S
C482   C483    1.458   .     S
C482   O485    1.250   .     D
C482   O486    1.251   .     S
C483   C484    1.397   .     D
C483   C1730   1.386   .     S
C484   C1731   1.389   .     S
O485   Zn1243  2.025   .     S
O486   Zn1244  2.031   .     S
H487   C490    0.949   .     S
C488   C489    1.458   .     S
C488   O491    1.250   .     D
C488   O492    1.251   .     S
C489   C490    1.397   .     D
C489   C1736   1.386   .     S
C490   C1737   1.389   .     S
O491   Zn1241  2.025   1_556 S
O492   Zn1242  2.031   1_556 S
H493   C496    0.949   .     S
C494   C495    1.458   .     S
C494   O497    1.250   .     D
C494   O498    1.251   .     S
C495   C496    1.397   .     D
C495   C1742   1.386   .     S
C496   C1743   1.389   .     S
O497   Zn1247  2.025   1_556 S
O498   Zn1248  2.031   1_556 S
H499   C502    0.949   .     S
C500   C501    1.458   .     S
C500   O503    1.250   .     D
C500   O504    1.251   .     S
C501   C502    1.397   .     D
C501   C1748   1.386   .     S
C502   C1749   1.389   .     S
O503   Zn1245  2.025   .     S
O504   Zn1246  2.031   .     S
H505   C508    0.949   .     S
C506   C507    1.458   .     S
C506   O509    1.250   .     D
C506   O510    1.251   .     S
C507   C508    1.397   .     D
C507   C1754   1.386   .     S
C508   C1755   1.389   .     S
O509   Zn1227  2.025   .     S
O510   Zn1228  2.031   .     S
H511   C514    0.949   .     S
C512   C513    1.458   .     S
C512   O515    1.250   .     D
C512   O516    1.251   .     S
C513   C514    1.397   .     D
C513   C1760   1.386   .     S
C514   C1761   1.389   .     S
O515   Zn1225  2.025   .     S
O516   Zn1226  2.031   .     S
H517   C520    0.949   .     S
C518   C519    1.458   .     S
C518   O521    1.250   .     D
C518   O522    1.251   .     S
C519   C520    1.397   .     D
C519   C1766   1.386   .     S
C520   C1767   1.389   .     S
O521   Zn1231  2.025   .     S
O522   Zn1232  2.031   .     S
H523   C526    0.949   .     S
C524   C525    1.458   .     S
C524   O527    1.250   .     D
C524   O528    1.251   .     S
C525   C526    1.397   .     D
C525   C1772   1.386   .     S
C526   C1773   1.389   .     S
O527   Zn1229  2.025   .     S
O528   Zn1230  2.031   .     S
H529   C532    0.949   .     S
C530   C531    1.458   .     S
C530   O533    1.250   .     D
C530   O534    1.251   .     S
C531   C532    1.397   .     D
C531   C1778   1.386   .     S
C532   C1779   1.389   .     S
O533   Zn1235  2.025   .     S
O534   Zn1236  2.031   .     S
H535   C538    0.949   .     S
C536   C537    1.458   .     S
C536   O539    1.250   .     D
C536   O540    1.251   .     S
C537   C538    1.397   .     D
C537   C1784   1.386   .     S
C538   C1785   1.389   .     S
O539   Zn1233  2.025   .     S
O540   Zn1234  2.031   .     S
H541   C544    0.949   .     S
C542   C543    1.458   .     S
C542   O545    1.250   .     D
C542   O546    1.251   .     S
C543   C544    1.397   .     D
C543   C1790   1.386   .     S
C544   C1791   1.389   .     S
O545   Zn1239  2.025   .     S
O546   Zn1240  2.031   .     S
H547   C550    0.949   .     S
C548   C549    1.458   .     S
C548   O551    1.250   .     D
C548   O552    1.251   .     S
C549   C550    1.397   .     D
C549   C1796   1.386   .     S
C550   C1797   1.389   .     S
O551   Zn1237  2.025   .     S
O552   Zn1238  2.031   .     S
H553   C556    0.949   .     S
C554   C555    1.458   .     S
C554   O557    1.250   .     D
C554   O558    1.251   .     S
C555   C556    1.397   .     D
C555   C1802   1.386   .     S
C556   C1803   1.389   .     S
O557   Zn1219  2.025   .     S
O558   Zn1220  2.031   .     S
H559   C562    0.949   .     S
C560   C561    1.458   .     S
C560   O563    1.250   .     D
C560   O564    1.251   .     S
C561   C562    1.397   .     D
C561   C1808   1.386   .     S
C562   C1809   1.389   .     S
O563   Zn1217  2.025   1_556 S
O564   Zn1218  2.031   1_556 S
H565   C568    0.949   .     S
C566   C567    1.458   .     S
C566   O569    1.250   .     D
C566   O570    1.251   .     S
C567   C568    1.397   .     D
C567   C1814   1.386   .     S
C568   C1815   1.389   .     S
O569   Zn1223  2.025   1_556 S
O570   Zn1224  2.031   1_556 S
H571   C574    0.949   .     S
C572   C573    1.458   .     S
C572   O575    1.250   .     D
C572   O576    1.251   .     S
C573   C574    1.397   .     D
C573   C1820   1.386   .     S
C574   C1821   1.389   .     S
O575   Zn1221  2.025   .     S
O576   Zn1222  2.031   .     S
H577   C580    0.949   .     S
C578   C579    1.458   .     S
C578   O581    1.250   .     D
C578   O582    1.251   .     S
C579   C580    1.397   .     D
C579   C1754   1.386   .     S
C580   C1755   1.389   .     S
O581   Zn1183  2.025   .     S
O582   Zn1184  2.031   .     S
H583   C586    0.949   .     S
C584   C585    1.458   .     S
C584   O587    1.250   .     D
C584   O588    1.251   .     S
C585   C586    1.397   .     D
C585   C1760   1.386   .     S
C586   C1761   1.389   .     S
O587   Zn1181  2.025   .     S
O588   Zn1182  2.031   .     S
H589   C592    0.949   .     S
C590   C591    1.458   .     S
C590   O593    1.250   .     D
C590   O594    1.251   .     S
C591   C592    1.397   .     D
C591   C1766   1.386   .     S
C592   C1767   1.389   .     S
O593   Zn1179  2.025   1_655 S
O594   Zn1180  2.031   1_655 S
H595   C598    0.949   .     S
C596   C597    1.458   .     S
C596   O599    1.250   .     D
C596   O600    1.251   .     S
C597   C598    1.397   .     D
C597   C1772   1.386   .     S
C598   C1773   1.389   .     S
O599   Zn1177  2.025   1_655 S
O600   Zn1178  2.031   1_655 S
H601   C604    0.949   .     S
C602   C603    1.458   .     S
C602   O605    1.250   .     D
C602   O606    1.251   .     S
C603   C604    1.397   .     D
C603   C1778   1.386   .     S
C604   C1779   1.389   .     S
O605   Zn1175  2.025   .     S
O606   Zn1176  2.031   .     S
H607   C610    0.949   .     S
C608   C609    1.458   .     S
C608   O611    1.250   .     D
C608   O612    1.251   .     S
C609   C610    1.397   .     D
C609   C1784   1.386   .     S
C610   C1785   1.389   .     S
O611   Zn1173  2.025   .     S
O612   Zn1174  2.031   .     S
H613   C616    0.949   .     S
C614   C615    1.458   .     S
C614   O617    1.250   .     D
C614   O618    1.251   .     S
C615   C616    1.397   .     D
C615   C1790   1.386   .     S
C616   C1791   1.389   .     S
O617   Zn1171  2.025   .     S
O618   Zn1172  2.031   .     S
H619   C622    0.949   .     S
C620   C621    1.458   .     S
C620   O623    1.250   .     D
C620   O624    1.251   .     S
C621   C622    1.397   .     D
C621   C1796   1.386   .     S
C622   C1797   1.389   .     S
O623   Zn1169  2.025   .     S
O624   Zn1170  2.031   .     S
H625   C628    0.949   .     S
C626   C627    1.458   .     S
C626   O629    1.250   .     D
C626   O630    1.251   .     S
C627   C628    1.397   .     D
C627   C1802   1.386   .     S
C628   C1803   1.389   .     S
O629   Zn1167  2.025   .     S
O630   Zn1168  2.031   .     S
H631   C634    0.949   .     S
C632   C633    1.458   .     S
C632   O635    1.250   .     D
C632   O636    1.251   .     S
C633   C634    1.397   .     D
C633   C1808   1.386   .     S
C634   C1809   1.389   .     S
O635   Zn1165  2.025   .     S
O636   Zn1166  2.031   .     S
H637   C640    0.949   .     S
C638   C639    1.458   .     S
C638   O641    1.250   .     D
C638   O642    1.251   .     S
C639   C640    1.397   .     D
C639   C1814   1.386   .     S
C640   C1815   1.389   .     S
O641   Zn1163  2.025   .     S
O642   Zn1164  2.031   .     S
H643   C646    0.949   .     S
C644   C645    1.458   .     S
C644   O647    1.250   .     D
C644   O648    1.251   .     S
C645   C646    1.397   .     D
C645   C1820   1.386   .     S
C646   C1821   1.389   .     S
O647   Zn1161  2.025   .     S
O648   Zn1162  2.031   .     S
H649   C652    0.949   .     S
C650   C651    1.458   .     S
C650   O653    1.250   .     D
C650   O654    1.251   .     S
C651   C652    1.397   .     D
C651   C1730   1.386   .     S
C652   C1731   1.389   .     S
O653   Zn1159  2.025   .     S
O654   Zn1160  2.031   .     S
H655   C658    0.949   .     S
C656   C657    1.458   .     S
C656   O659    1.250   .     D
C656   O660    1.251   .     S
C657   C658    1.397   .     D
C657   C1736   1.386   .     S
C658   C1737   1.389   .     S
O659   Zn1157  2.025   .     S
O660   Zn1158  2.031   .     S
H661   C664    0.949   .     S
C662   C663    1.458   .     S
C662   O665    1.250   .     D
C662   O666    1.251   .     S
C663   C664    1.397   .     D
C663   C1742   1.386   .     S
C664   C1743   1.389   .     S
O665   Zn1155  2.025   1_655 S
O666   Zn1156  2.031   1_655 S
H667   C670    0.949   .     S
C668   C669    1.458   .     S
C668   O671    1.250   .     D
C668   O672    1.251   .     S
C669   C670    1.397   .     D
C669   C1748   1.386   .     S
C670   C1749   1.389   .     S
O671   Zn1153  2.025   1_655 S
O672   Zn1154  2.031   1_655 S
H673   C676    0.949   .     S
C674   C675    1.458   .     S
C674   O677    1.250   .     D
C674   O678    1.251   .     S
C675   C676    1.397   .     D
C675   C1634   1.386   .     S
C676   C1635   1.389   .     S
O677   Zn1211  2.025   .     S
O678   Zn1212  2.031   .     S
H679   C682    0.949   .     S
C680   C681    1.458   .     S
C680   O683    1.250   .     D
C680   O684    1.251   .     S
C681   C682    1.397   .     D
C681   C1640   1.386   .     S
C682   C1641   1.389   .     S
O683   Zn1209  2.025   1_565 S
O684   Zn1210  2.031   1_565 S
H685   C688    0.949   .     S
C686   C687    1.458   .     S
C686   O689    1.250   .     D
C686   O690    1.251   .     S
C687   C688    1.397   .     D
C687   C1646   1.386   .     S
C688   C1647   1.389   .     S
O689   Zn1215  2.025   .     S
O690   Zn1216  2.031   .     S
H691   C694    0.949   .     S
C692   C693    1.458   .     S
C692   O695    1.250   .     D
C692   O696    1.251   .     S
C693   C694    1.397   .     D
C693   C1652   1.386   .     S
C694   C1653   1.389   .     S
O695   Zn1213  2.025   1_565 S
O696   Zn1214  2.031   1_565 S
H697   C700    0.949   .     S
C698   C699    1.458   .     S
C698   O701    1.250   .     D
C698   O702    1.251   .     S
C699   C700    1.397   .     D
C699   C1706   1.386   .     S
C700   C1707   1.389   .     S
O701   Zn1203  2.025   .     S
O702   Zn1204  2.031   .     S
H703   C706    0.949   .     S
C704   C705    1.458   .     S
C704   O707    1.250   .     D
C704   O708    1.251   .     S
C705   C706    1.397   .     D
C705   C1712   1.386   .     S
C706   C1713   1.389   .     S
O707   Zn1201  2.025   .     S
O708   Zn1202  2.031   .     S
H709   C712    0.949   .     S
C710   C711    1.458   .     S
C710   O713    1.250   .     D
C710   O714    1.251   .     S
C711   C712    1.397   .     D
C711   C1718   1.386   .     S
C712   C1719   1.389   .     S
O713   Zn1207  2.025   .     S
O714   Zn1208  2.031   .     S
H715   C718    0.949   .     S
C716   C717    1.458   .     S
C716   O719    1.250   .     D
C716   O720    1.251   .     S
C717   C718    1.397   .     D
C717   C1724   1.386   .     S
C718   C1725   1.389   .     S
O719   Zn1205  2.025   .     S
O720   Zn1206  2.031   .     S
H721   C724    0.949   .     S
C722   C723    1.458   .     S
C722   O725    1.250   .     D
C722   O726    1.251   .     S
C723   C724    1.397   .     D
C723   C1682   1.386   .     S
C724   C1683   1.389   .     S
O725   Zn1195  2.025   .     S
O726   Zn1196  2.031   .     S
H727   C730    0.949   .     S
C728   C729    1.458   .     S
C728   O731    1.250   .     D
C728   O732    1.251   .     S
C729   C730    1.397   .     D
C729   C1688   1.386   .     S
C730   C1689   1.389   .     S
O731   Zn1193  2.025   .     S
O732   Zn1194  2.031   .     S
H733   C736    0.949   .     S
C734   C735    1.458   .     S
C734   O737    1.250   .     D
C734   O738    1.251   .     S
C735   C736    1.397   .     D
C735   C1694   1.386   .     S
C736   C1695   1.389   .     S
O737   Zn1199  2.025   .     S
O738   Zn1200  2.031   .     S
H739   C742    0.949   .     S
C740   C741    1.458   .     S
C740   O743    1.250   .     D
C740   O744    1.251   .     S
C741   C742    1.397   .     D
C741   C1700   1.386   .     S
C742   C1701   1.389   .     S
O743   Zn1197  2.025   .     S
O744   Zn1198  2.031   .     S
H745   C748    0.949   .     S
C746   C747    1.458   .     S
C746   O749    1.250   .     D
C746   O750    1.251   .     S
C747   C748    1.397   .     D
C747   C1658   1.386   .     S
C748   C1659   1.389   .     S
O749   Zn1187  2.025   .     S
O750   Zn1188  2.031   .     S
H751   C754    0.949   .     S
C752   C753    1.458   .     S
C752   O755    1.250   .     D
C752   O756    1.251   .     S
C753   C754    1.397   .     D
C753   C1664   1.386   .     S
C754   C1665   1.389   .     S
O755   Zn1185  2.025   1_565 S
O756   Zn1186  2.031   1_565 S
H757   C760    0.949   .     S
C758   C759    1.458   .     S
C758   O761    1.250   .     D
C758   O762    1.251   .     S
C759   C760    1.397   .     D
C759   C1670   1.386   .     S
C760   C1671   1.389   .     S
O761   Zn1191  2.025   .     S
O762   Zn1192  2.031   .     S
H763   C766    0.949   .     S
C764   C765    1.458   .     S
C764   O767    1.250   .     D
C764   O768    1.251   .     S
C765   C766    1.397   .     D
C765   C1676   1.386   .     S
C766   C1677   1.389   .     S
O767   Zn1189  2.025   1_565 S
O768   Zn1190  2.031   1_565 S
H769   C772    0.949   .     S
C770   C771    1.458   .     S
C770   O773    1.250   .     D
C770   O774    1.251   .     S
C771   C772    1.397   .     D
C771   C1610   1.386   .     S
C772   C1611   1.389   .     S
O773   Zn1245  2.025   .     S
O774   Zn1246  2.031   .     S
H775   C778    0.949   .     S
C776   C777    1.458   .     S
C776   O779    1.250   .     D
C776   O780    1.251   .     S
C777   C778    1.397   .     D
C777   C1616   1.386   .     S
C778   C1617   1.389   .     S
O779   Zn1247  2.025   1_556 S
O780   Zn1248  2.031   1_556 S
H781   C784    0.949   .     S
C782   C783    1.458   .     S
C782   O785    1.250   .     D
C782   O786    1.251   .     S
C783   C784    1.397   .     D
C783   C1622   1.386   .     S
C784   C1623   1.389   .     S
O785   Zn1241  2.025   1_556 S
O786   Zn1242  2.031   1_556 S
H787   C790    0.949   .     S
C788   C789    1.458   .     S
C788   O791    1.250   .     D
C788   O792    1.251   .     S
C789   C790    1.397   .     D
C789   C1628   1.386   .     S
C790   C1629   1.389   .     S
O791   Zn1243  2.025   .     S
O792   Zn1244  2.031   .     S
H793   C796    0.949   .     S
C794   C795    1.458   .     S
C794   O797    1.250   .     D
C794   O798    1.251   .     S
C795   C796    1.397   .     D
C795   C1538   1.386   .     S
C796   C1539   1.389   .     S
O797   Zn1237  2.025   .     S
O798   Zn1238  2.031   .     S
H799   C802    0.949   .     S
C800   C801    1.458   .     S
C800   O803    1.250   .     D
C800   O804    1.251   .     S
C801   C802    1.397   .     D
C801   C1544   1.386   .     S
C802   C1545   1.389   .     S
O803   Zn1239  2.025   .     S
O804   Zn1240  2.031   .     S
H805   C808    0.949   .     S
C806   C807    1.458   .     S
C806   O809    1.250   .     D
C806   O810    1.251   .     S
C807   C808    1.397   .     D
C807   C1550   1.386   .     S
C808   C1551   1.389   .     S
O809   Zn1233  2.025   .     S
O810   Zn1234  2.031   .     S
H811   C814    0.949   .     S
C812   C813    1.458   .     S
C812   O815    1.250   .     D
C812   O816    1.251   .     S
C813   C814    1.397   .     D
C813   C1556   1.386   .     S
C814   C1557   1.389   .     S
O815   Zn1235  2.025   .     S
O816   Zn1236  2.031   .     S
H817   C820    0.949   .     S
C818   C819    1.458   .     S
C818   O821    1.250   .     D
C818   O822    1.251   .     S
C819   C820    1.397   .     D
C819   C1562   1.386   .     S
C820   C1563   1.389   .     S
O821   Zn1229  2.025   .     S
O822   Zn1230  2.031   .     S
H823   C826    0.949   .     S
C824   C825    1.458   .     S
C824   O827    1.250   .     D
C824   O828    1.251   .     S
C825   C826    1.397   .     D
C825   C1568   1.386   .     S
C826   C1569   1.389   .     S
O827   Zn1231  2.025   .     S
O828   Zn1232  2.031   .     S
H829   C832    0.949   .     S
C830   C831    1.458   .     S
C830   O833    1.250   .     D
C830   O834    1.251   .     S
C831   C832    1.397   .     D
C831   C1574   1.386   .     S
C832   C1575   1.389   .     S
O833   Zn1225  2.025   .     S
O834   Zn1226  2.031   .     S
H835   C838    0.949   .     S
C836   C837    1.458   .     S
C836   O839    1.250   .     D
C836   O840    1.251   .     S
C837   C838    1.397   .     D
C837   C1580   1.386   .     S
C838   C1581   1.389   .     S
O839   Zn1227  2.025   .     S
O840   Zn1228  2.031   .     S
H841   C844    0.949   .     S
C842   C843    1.458   .     S
C842   O845    1.250   .     D
C842   O846    1.251   .     S
C843   C844    1.397   .     D
C843   C1586   1.386   .     S
C844   C1587   1.389   .     S
O845   Zn1221  2.025   .     S
O846   Zn1222  2.031   .     S
H847   C850    0.949   .     S
C848   C849    1.458   .     S
C848   O851    1.250   .     D
C848   O852    1.251   .     S
C849   C850    1.397   .     D
C849   C1592   1.386   .     S
C850   C1593   1.389   .     S
O851   Zn1223  2.025   1_556 S
O852   Zn1224  2.031   1_556 S
H853   C856    0.949   .     S
C854   C855    1.458   .     S
C854   O857    1.250   .     D
C854   O858    1.251   .     S
C855   C856    1.397   .     D
C855   C1598   1.386   .     S
C856   C1599   1.389   .     S
O857   Zn1217  2.025   1_556 S
O858   Zn1218  2.031   1_556 S
H859   C862    0.949   .     S
C860   C861    1.458   .     S
C860   O863    1.250   .     D
C860   O864    1.251   .     S
C861   C862    1.397   .     D
C861   C1604   1.386   .     S
C862   C1605   1.389   .     S
O863   Zn1219  2.025   .     S
O864   Zn1220  2.031   .     S
H865   C868    0.949   .     S
C866   C867    1.458   .     S
C866   O869    1.250   .     D
C866   O870    1.251   .     S
C867   C868    1.397   .     D
C867   C1466   1.386   .     S
C868   C1467   1.389   .     S
O869   Zn1199  2.025   .     S
O870   Zn1200  2.031   .     S
H871   C874    0.949   .     S
C872   C873    1.458   .     S
C872   O875    1.250   .     D
C872   O876    1.251   .     S
C873   C874    1.397   .     D
C873   C1472   1.386   .     S
C874   C1473   1.389   .     S
O875   Zn1197  2.025   1_565 S
O876   Zn1198  2.031   1_565 S
H877   C880    0.949   .     S
C878   C879    1.458   .     S
C878   O881    1.250   .     D
C878   O882    1.251   .     S
C879   C880    1.397   .     D
C879   C1478   1.386   .     S
C880   C1479   1.389   .     S
O881   Zn1195  2.025   .     S
O882   Zn1196  2.031   .     S
H883   C886    0.949   .     S
C884   C885    1.458   .     S
C884   O887    1.250   .     D
C884   O888    1.251   .     S
C885   C886    1.397   .     D
C885   C1484   1.386   .     S
C886   C1485   1.389   .     S
O887   Zn1193  2.025   1_565 S
O888   Zn1194  2.031   1_565 S
H889   C892    0.949   .     S
C890   C891    1.458   .     S
C890   O893    1.250   .     D
C890   O894    1.251   .     S
C891   C892    1.397   .     D
C891   C1490   1.386   .     S
C892   C1491   1.389   .     S
O893   Zn1215  2.025   .     S
O894   Zn1216  2.031   .     S
H895   C898    0.949   .     S
C896   C897    1.458   .     S
C896   O899    1.250   .     D
C896   O900    1.251   .     S
C897   C898    1.397   .     D
C897   C1496   1.386   .     S
C898   C1497   1.389   .     S
O899   Zn1213  2.025   .     S
O900   Zn1214  2.031   .     S
H901   C904    0.949   .     S
C902   C903    1.458   .     S
C902   O905    1.250   .     D
C902   O906    1.251   .     S
C903   C904    1.397   .     D
C903   C1502   1.386   .     S
C904   C1503   1.389   .     S
O905   Zn1211  2.025   .     S
O906   Zn1212  2.031   .     S
H907   C910    0.949   .     S
C908   C909    1.458   .     S
C908   O911    1.250   .     D
C908   O912    1.251   .     S
C909   C910    1.397   .     D
C909   C1508   1.386   .     S
C910   C1509   1.389   .     S
O911   Zn1209  2.025   .     S
O912   Zn1210  2.031   .     S
H913   C916    0.949   .     S
C914   C915    1.458   .     S
C914   O917    1.250   .     D
C914   O918    1.251   .     S
C915   C916    1.397   .     D
C915   C1514   1.386   .     S
C916   C1515   1.389   .     S
O917   Zn1191  2.025   .     S
O918   Zn1192  2.031   .     S
H919   C922    0.949   .     S
C920   C921    1.458   .     S
C920   O923    1.250   .     D
C920   O924    1.251   .     S
C921   C922    1.397   .     D
C921   C1520   1.386   .     S
C922   C1521   1.389   .     S
O923   Zn1189  2.025   .     S
O924   Zn1190  2.031   .     S
H925   C928    0.949   .     S
C926   C927    1.458   .     S
C926   O929    1.250   .     D
C926   O930    1.251   .     S
C927   C928    1.397   .     D
C927   C1526   1.386   .     S
C928   C1527   1.389   .     S
O929   Zn1187  2.025   .     S
O930   Zn1188  2.031   .     S
H931   C934    0.949   .     S
C932   C933    1.458   .     S
C932   O935    1.250   .     D
C932   O936    1.251   .     S
C933   C934    1.397   .     D
C933   C1532   1.386   .     S
C934   C1533   1.389   .     S
O935   Zn1185  2.025   .     S
O936   Zn1186  2.031   .     S
H937   C940    0.949   .     S
C938   C939    1.458   .     S
C938   O941    1.250   .     D
C938   O942    1.251   .     S
C939   C940    1.397   .     D
C939   C1442   1.386   .     S
C940   C1443   1.389   .     S
O941   Zn1207  2.025   .     S
O942   Zn1208  2.031   .     S
H943   C946    0.949   .     S
C944   C945    1.458   .     S
C944   O947    1.250   .     D
C944   O948    1.251   .     S
C945   C946    1.397   .     D
C945   C1448   1.386   .     S
C946   C1449   1.389   .     S
O947   Zn1205  2.025   1_565 S
O948   Zn1206  2.031   1_565 S
H949   C952    0.949   .     S
C950   C951    1.458   .     S
C950   O953    1.250   .     D
C950   O954    1.251   .     S
C951   C952    1.397   .     D
C951   C1454   1.386   .     S
C952   C1455   1.389   .     S
O953   Zn1203  2.025   .     S
O954   Zn1204  2.031   .     S
H955   C958    0.949   .     S
C956   C957    1.458   .     S
C956   O959    1.250   .     D
C956   O960    1.251   .     S
C957   C958    1.397   .     D
C957   C1460   1.386   .     S
C958   C1461   1.389   .     S
O959   Zn1201  2.025   1_565 S
O960   Zn1202  2.031   1_565 S
H961   C964    0.949   .     S
C962   C963    1.458   .     S
C962   O965    1.250   .     D
C962   O966    1.251   .     S
C963   C964    1.397   .     D
C963   C1346   1.386   .     S
C964   C1347   1.389   .     S
O965   Zn1173  2.025   .     S
O966   Zn1174  2.031   .     S
H967   C970    0.949   .     S
C968   C969    1.458   .     S
C968   O971    1.250   .     D
C968   O972    1.251   .     S
C969   C970    1.397   .     D
C969   C1352   1.386   .     S
C970   C1353   1.389   .     S
O971   Zn1175  2.025   .     S
O972   Zn1176  2.031   .     S
H973   C976    0.949   .     S
C974   C975    1.458   .     S
C974   O977    1.250   .     D
C974   O978    1.251   .     S
C975   C976    1.397   .     D
C975   C1358   1.386   .     S
C976   C1359   1.389   .     S
O977   Zn1169  2.025   1_655 S
O978   Zn1170  2.031   1_655 S
H979   C982    0.949   .     S
C980   C981    1.458   .     S
C980   O983    1.250   .     D
C980   O984    1.251   .     S
C981   C982    1.397   .     D
C981   C1364   1.386   .     S
C982   C1365   1.389   .     S
O983   Zn1171  2.025   1_655 S
O984   Zn1172  2.031   1_655 S
H985   C988    0.949   .     S
C986   C987    1.458   .     S
C986   O989    1.250   .     D
C986   O990    1.251   .     S
C987   C988    1.397   .     D
C987   C1418   1.386   .     S
C988   C1419   1.389   .     S
O989   Zn1157  2.025   .     S
O990   Zn1158  2.031   .     S
H991   C994    0.949   .     S
C992   C993    1.458   .     S
C992   O995    1.250   .     D
C992   O996    1.251   .     S
C993   C994    1.397   .     D
C993   C1424   1.386   .     S
C994   C1425   1.389   .     S
O995   Zn1159  2.025   .     S
O996   Zn1160  2.031   .     S
H997   C1000   0.949   .     S
C998   C999    1.458   .     S
C998   O1001   1.250   .     D
C998   O1002   1.251   .     S
C999   C1000   1.397   .     D
C999   C1430   1.386   .     S
C1000  C1431   1.389   .     S
O1001  Zn1153  2.025   .     S
O1002  Zn1154  2.031   .     S
H1003  C1006   0.949   .     S
C1004  C1005   1.458   .     S
C1004  O1007   1.250   .     D
C1004  O1008   1.251   .     S
C1005  C1006   1.397   .     D
C1005  C1436   1.386   .     S
C1006  C1437   1.389   .     S
O1007  Zn1155  2.025   .     S
O1008  Zn1156  2.031   .     S
H1009  C1012   0.949   .     S
C1010  C1011   1.458   .     S
C1010  O1013   1.250   .     D
C1010  O1014   1.251   .     S
C1011  C1012   1.397   .     D
C1011  C1394   1.386   .     S
C1012  C1395   1.389   .     S
O1013  Zn1181  2.025   .     S
O1014  Zn1182  2.031   .     S
H1015  C1018   0.949   .     S
C1016  C1017   1.458   .     S
C1016  O1019   1.250   .     D
C1016  O1020   1.251   .     S
C1017  C1018   1.397   .     D
C1017  C1400   1.386   .     S
C1018  C1401   1.389   .     S
O1019  Zn1183  2.025   .     S
O1020  Zn1184  2.031   .     S
H1021  C1024   0.949   .     S
C1022  C1023   1.458   .     S
C1022  O1025   1.250   .     D
C1022  O1026   1.251   .     S
C1023  C1024   1.397   .     D
C1023  C1406   1.386   .     S
C1024  C1407   1.389   .     S
O1025  Zn1177  2.025   .     S
O1026  Zn1178  2.031   .     S
H1027  C1030   0.949   .     S
C1028  C1029   1.458   .     S
C1028  O1031   1.250   .     D
C1028  O1032   1.251   .     S
C1029  C1030   1.397   .     D
C1029  C1412   1.386   .     S
C1030  C1413   1.389   .     S
O1031  Zn1179  2.025   .     S
O1032  Zn1180  2.031   .     S
H1033  C1036   0.949   .     S
C1034  C1035   1.458   .     S
C1034  O1037   1.250   .     D
C1034  O1038   1.251   .     S
C1035  C1036   1.397   .     D
C1035  C1370   1.386   .     S
C1036  C1371   1.389   .     S
O1037  Zn1165  2.025   .     S
O1038  Zn1166  2.031   .     S
H1039  C1042   0.949   .     S
C1040  C1041   1.458   .     S
C1040  O1043   1.250   .     D
C1040  O1044   1.251   .     S
C1041  C1042   1.397   .     D
C1041  C1376   1.386   .     S
C1042  C1377   1.389   .     S
O1043  Zn1167  2.025   .     S
O1044  Zn1168  2.031   .     S
H1045  C1048   0.949   .     S
C1046  C1047   1.458   .     S
C1046  O1049   1.250   .     D
C1046  O1050   1.251   .     S
C1047  C1048   1.397   .     D
C1047  C1382   1.386   .     S
C1048  C1383   1.389   .     S
O1049  Zn1161  2.025   1_655 S
O1050  Zn1162  2.031   1_655 S
H1051  C1054   0.949   .     S
C1052  C1053   1.458   .     S
C1052  O1055   1.250   .     D
C1052  O1056   1.251   .     S
C1053  C1054   1.397   .     D
C1053  C1388   1.386   .     S
C1054  C1389   1.389   .     S
O1055  Zn1163  2.025   1_655 S
O1056  Zn1164  2.031   1_655 S
H1057  C1060   0.949   .     S
C1058  C1059   1.458   .     S
C1058  O1061   1.250   .     D
C1058  O1062   1.251   .     S
C1059  C1060   1.397   .     D
C1059  C1322   1.386   .     S
C1060  C1323   1.389   .     S
O1061  Zn1219  2.025   .     S
O1062  Zn1220  2.031   .     S
H1063  C1066   0.949   .     S
C1064  C1065   1.458   .     S
C1064  O1067   1.250   .     D
C1064  O1068   1.251   .     S
C1065  C1066   1.397   .     D
C1065  C1328   1.386   .     S
C1066  C1329   1.389   .     S
O1067  Zn1217  2.025   .     S
O1068  Zn1218  2.031   .     S
H1069  C1072   0.949   .     S
C1070  C1071   1.458   .     S
C1070  O1073   1.250   .     D
C1070  O1074   1.251   .     S
C1071  C1072   1.397   .     D
C1071  C1334   1.386   .     S
C1072  C1335   1.389   .     S
O1073  Zn1223  2.025   .     S
O1074  Zn1224  2.031   .     S
H1075  C1078   0.949   .     S
C1076  C1077   1.458   .     S
C1076  O1079   1.250   .     D
C1076  O1080   1.251   .     S
C1077  C1078   1.397   .     D
C1077  C1340   1.386   .     S
C1078  C1341   1.389   .     S
O1079  Zn1221  2.025   .     S
O1080  Zn1222  2.031   .     S
H1081  C1084   0.949   .     S
C1082  C1083   1.458   .     S
C1082  O1085   1.250   .     D
C1082  O1086   1.251   .     S
C1083  C1084   1.397   .     D
C1083  C1250   1.386   .     S
C1084  C1251   1.389   .     S
O1085  Zn1235  2.025   .     S
O1086  Zn1236  2.031   .     S
H1087  C1090   0.949   .     S
C1088  C1089   1.458   .     S
C1088  O1091   1.250   .     D
C1088  O1092   1.251   .     S
C1089  C1090   1.397   .     D
C1089  C1256   1.386   .     S
C1090  C1257   1.389   .     S
O1091  Zn1233  2.025   1_556 S
O1092  Zn1234  2.031   1_556 S
H1093  C1096   0.949   .     S
C1094  C1095   1.458   .     S
C1094  O1097   1.250   .     D
C1094  O1098   1.251   .     S
C1095  C1096   1.397   .     D
C1095  C1262   1.386   .     S
C1096  C1263   1.389   .     S
O1097  Zn1239  2.025   1_556 S
O1098  Zn1240  2.031   1_556 S
H1099  C1102   0.949   .     S
C1100  C1101   1.458   .     S
C1100  O1103   1.250   .     D
C1100  O1104   1.251   .     S
C1101  C1102   1.397   .     D
C1101  C1268   1.386   .     S
C1102  C1269   1.389   .     S
O1103  Zn1237  2.025   .     S
O1104  Zn1238  2.031   .     S
H1105  C1108   0.949   .     S
C1106  C1107   1.458   .     S
C1106  O1109   1.250   .     D
C1106  O1110   1.251   .     S
C1107  C1108   1.397   .     D
C1107  C1274   1.386   .     S
C1108  C1275   1.389   .     S
O1109  Zn1227  2.025   .     S
O1110  Zn1228  2.031   .     S
H1111  C1114   0.949   .     S
C1112  C1113   1.458   .     S
C1112  O1115   1.250   .     D
C1112  O1116   1.251   .     S
C1113  C1114   1.397   .     D
C1113  C1280   1.386   .     S
C1114  C1281   1.389   .     S
O1115  Zn1225  2.025   1_556 S
O1116  Zn1226  2.031   1_556 S
H1117  C1120   0.949   .     S
C1118  C1119   1.458   .     S
C1118  O1121   1.250   .     D
C1118  O1122   1.251   .     S
C1119  C1120   1.397   .     D
C1119  C1286   1.386   .     S
C1120  C1287   1.389   .     S
O1121  Zn1231  2.025   1_556 S
O1122  Zn1232  2.031   1_556 S
H1123  C1126   0.949   .     S
C1124  C1125   1.458   .     S
C1124  O1127   1.250   .     D
C1124  O1128   1.251   .     S
C1125  C1126   1.397   .     D
C1125  C1292   1.386   .     S
C1126  C1293   1.389   .     S
O1127  Zn1229  2.025   .     S
O1128  Zn1230  2.031   .     S
H1129  C1132   0.949   .     S
C1130  C1131   1.458   .     S
C1130  O1133   1.250   .     D
C1130  O1134   1.251   .     S
C1131  C1132   1.397   .     D
C1131  C1298   1.386   .     S
C1132  C1299   1.389   .     S
O1133  Zn1243  2.025   .     S
O1134  Zn1244  2.031   .     S
H1135  C1138   0.949   .     S
C1136  C1137   1.458   .     S
C1136  O1139   1.250   .     D
C1136  O1140   1.251   .     S
C1137  C1138   1.397   .     D
C1137  C1304   1.386   .     S
C1138  C1305   1.389   .     S
O1139  Zn1241  2.025   .     S
O1140  Zn1242  2.031   .     S
H1141  C1144   0.949   .     S
C1142  C1143   1.458   .     S
C1142  O1145   1.250   .     D
C1142  O1146   1.251   .     S
C1143  C1144   1.397   .     D
C1143  C1310   1.386   .     S
C1144  C1311   1.389   .     S
O1145  Zn1247  2.025   .     S
O1146  Zn1248  2.031   .     S
H1147  C1150   0.949   .     S
C1148  C1149   1.458   .     S
C1148  O1151   1.250   .     D
C1148  O1152   1.251   .     S
C1149  C1150   1.397   .     D
C1149  C1316   1.386   .     S
C1150  C1317   1.389   .     S
O1151  Zn1245  2.025   .     S
O1152  Zn1246  2.031   .     S
Zn1153 O449    2.025   1_455 S
Zn1153 O671    2.025   1_455 S
Zn1154 O450    2.031   1_455 S
Zn1154 O672    2.031   1_455 S
Zn1155 O455    2.025   1_455 S
Zn1155 O665    2.025   1_455 S
Zn1156 O456    2.031   1_455 S
Zn1156 O666    2.031   1_455 S
Zn1161 O47     2.025   1_455 S
Zn1161 O1049   2.025   1_455 S
Zn1162 O48     2.031   1_455 S
Zn1162 O1050   2.031   1_455 S
Zn1163 O41     2.025   1_455 S
Zn1163 O1055   2.025   1_455 S
Zn1164 O42     2.031   1_455 S
Zn1164 O1056   2.031   1_455 S
Zn1169 O71     2.025   1_455 S
Zn1169 O977    2.025   1_455 S
Zn1170 O72     2.031   1_455 S
Zn1170 O978    2.031   1_455 S
Zn1171 O65     2.025   1_455 S
Zn1171 O983    2.025   1_455 S
Zn1172 O66     2.031   1_455 S
Zn1172 O984    2.031   1_455 S
Zn1177 O425    2.025   1_455 S
Zn1177 O599    2.025   1_455 S
Zn1178 O426    2.031   1_455 S
Zn1178 O600    2.031   1_455 S
Zn1179 O431    2.025   1_455 S
Zn1179 O593    2.025   1_455 S
Zn1180 O432    2.031   1_455 S
Zn1180 O594    2.031   1_455 S
Zn1185 O335    2.025   1_545 S
Zn1185 O755    2.025   1_545 S
Zn1186 O336    2.031   1_545 S
Zn1186 O756    2.031   1_545 S
Zn1189 O323    2.025   1_545 S
Zn1189 O767    2.025   1_545 S
Zn1190 O324    2.031   1_545 S
Zn1190 O768    2.031   1_545 S
Zn1193 O131    2.025   1_545 S
Zn1193 O887    2.025   1_545 S
Zn1194 O132    2.031   1_545 S
Zn1194 O888    2.031   1_545 S
Zn1197 O143    2.025   1_545 S
Zn1197 O875    2.025   1_545 S
Zn1198 O144    2.031   1_545 S
Zn1198 O876    2.031   1_545 S
Zn1201 O155    2.025   1_545 S
Zn1201 O959    2.025   1_545 S
Zn1202 O156    2.031   1_545 S
Zn1202 O960    2.031   1_545 S
Zn1205 O167    2.025   1_545 S
Zn1205 O947    2.025   1_545 S
Zn1206 O168    2.031   1_545 S
Zn1206 O948    2.031   1_545 S
Zn1209 O359    2.025   1_545 S
Zn1209 O683    2.025   1_545 S
Zn1210 O360    2.031   1_545 S
Zn1210 O684    2.031   1_545 S
Zn1213 O347    2.025   1_545 S
Zn1213 O695    2.025   1_545 S
Zn1214 O348    2.031   1_545 S
Zn1214 O696    2.031   1_545 S
Zn1217 O563    2.025   1_554 S
Zn1217 O857    2.025   1_554 S
Zn1218 O564    2.031   1_554 S
Zn1218 O858    2.031   1_554 S
Zn1223 O569    2.025   1_554 S
Zn1223 O851    2.025   1_554 S
Zn1224 O570    2.031   1_554 S
Zn1224 O852    2.031   1_554 S
Zn1225 O233    2.025   1_554 S
Zn1225 O1115   2.025   1_554 S
Zn1226 O234    2.031   1_554 S
Zn1226 O1116   2.031   1_554 S
Zn1231 O227    2.025   1_554 S
Zn1231 O1121   2.025   1_554 S
Zn1232 O228    2.031   1_554 S
Zn1232 O1122   2.031   1_554 S
Zn1233 O257    2.025   1_554 S
Zn1233 O1091   2.025   1_554 S
Zn1234 O258    2.031   1_554 S
Zn1234 O1092   2.031   1_554 S
Zn1239 O251    2.025   1_554 S
Zn1239 O1097   2.025   1_554 S
Zn1240 O252    2.031   1_554 S
Zn1240 O1098   2.031   1_554 S
Zn1241 O491    2.025   1_554 S
Zn1241 O785    2.025   1_554 S
Zn1242 O492    2.031   1_554 S
Zn1242 O786    2.031   1_554 S
Zn1247 O497    2.025   1_554 S
Zn1247 O779    2.025   1_554 S
Zn1248 O498    2.031   1_554 S
Zn1248 O780    2.031   1_554 S
H1249  C1250   0.950   .     S
C1251  C1252   1.348   .     S
C1252  C1253   1.213   .     T
C1253  C1254   1.511   .     S
C1254  C1826   1.381   .     S
C1254  C1898   1.381   .     S
H1255  C1256   0.950   .     S
C1257  C1258   1.348   .     S
C1258  C1259   1.213   .     T
C1259  C1260   1.511   .     S
C1260  C1828   1.381   .     S
C1260  C1900   1.381   .     S
H1261  C1262   0.950   .     S
C1263  C1264   1.348   .     S
C1264  C1265   1.213   .     T
C1265  C1266   1.511   .     S
C1266  C1830   1.381   .     S
C1266  C1902   1.381   .     S
H1267  C1268   0.950   .     S
C1269  C1270   1.348   .     S
C1270  C1271   1.213   .     T
C1271  C1272   1.511   .     S
C1272  C1832   1.381   .     S
C1272  C1904   1.381   .     S
H1273  C1274   0.950   .     S
C1275  C1276   1.348   .     S
C1276  C1277   1.213   .     T
C1277  C1278   1.511   .     S
C1278  C1834   1.381   .     S
C1278  C1906   1.381   .     S
H1279  C1280   0.950   .     S
C1281  C1282   1.348   .     S
C1282  C1283   1.213   .     T
C1283  C1284   1.511   .     S
C1284  C1836   1.381   .     S
C1284  C1908   1.381   .     S
H1285  C1286   0.950   .     S
C1287  C1288   1.348   .     S
C1288  C1289   1.213   .     T
C1289  C1290   1.511   .     S
C1290  C1838   1.381   .     S
C1290  C1910   1.381   .     S
H1291  C1292   0.950   .     S
C1293  C1294   1.348   .     S
C1294  C1295   1.213   .     T
C1295  C1296   1.511   .     S
C1296  C1840   1.381   .     S
C1296  C1912   1.381   .     S
H1297  C1298   0.950   .     S
C1299  C1300   1.348   .     S
C1300  C1301   1.213   .     T
C1301  C1302   1.511   .     S
C1302  C1842   1.381   .     S
C1302  C1890   1.381   .     S
H1303  C1304   0.950   .     S
C1305  C1306   1.348   .     S
C1306  C1307   1.213   .     T
C1307  C1308   1.511   .     S
C1308  C1844   1.381   .     S
C1308  C1892   1.381   .     S
H1309  C1310   0.950   .     S
C1311  C1312   1.348   .     S
C1312  C1313   1.213   .     T
C1313  C1314   1.511   .     S
C1314  C1846   1.381   .     S
C1314  C1894   1.381   .     S
H1315  C1316   0.950   .     S
C1317  C1318   1.348   .     S
C1318  C1319   1.213   .     T
C1319  C1320   1.511   .     S
C1320  C1848   1.381   .     S
C1320  C1896   1.381   .     S
H1321  C1322   0.950   .     S
C1323  C1324   1.348   .     S
C1324  C1325   1.213   .     T
C1325  C1326   1.511   .     S
C1326  C1850   1.381   .     S
C1326  C1914   1.381   .     S
H1327  C1328   0.950   .     S
C1329  C1330   1.348   .     S
C1330  C1331   1.213   .     T
C1331  C1332   1.511   .     S
C1332  C1852   1.381   .     S
C1332  C1916   1.381   .     S
H1333  C1334   0.950   .     S
C1335  C1336   1.348   .     S
C1336  C1337   1.213   .     T
C1337  C1338   1.511   .     S
C1338  C1854   1.381   .     S
C1338  C1918   1.381   .     S
H1339  C1340   0.950   .     S
C1341  C1342   1.348   .     S
C1342  C1343   1.213   .     T
C1343  C1344   1.511   .     S
C1344  C1856   1.381   .     S
C1344  C1920   1.381   .     S
H1345  C1346   0.950   .     S
C1347  C1348   1.348   .     S
C1348  C1349   1.213   .     T
C1349  C1350   1.511   .     S
C1350  C1858   1.381   .     S
C1350  C1834   1.381   .     S
H1351  C1352   0.950   .     S
C1353  C1354   1.348   .     S
C1354  C1355   1.213   .     T
C1355  C1356   1.511   .     S
C1356  C1860   1.381   .     S
C1356  C1836   1.381   .     S
H1357  C1358   0.950   .     S
C1359  C1360   1.348   .     S
C1360  C1361   1.213   .     T
C1361  C1362   1.511   .     S
C1362  C1862   1.381   .     S
C1362  C1838   1.381   .     S
H1363  C1364   0.950   .     S
C1365  C1366   1.348   .     S
C1366  C1367   1.213   .     T
C1367  C1368   1.511   .     S
C1368  C1864   1.381   .     S
C1368  C1840   1.381   .     S
H1369  C1370   0.950   .     S
C1371  C1372   1.348   .     S
C1372  C1373   1.213   .     T
C1373  C1374   1.511   .     S
C1374  C1866   1.381   .     S
C1374  C1842   1.381   .     S
H1375  C1376   0.950   .     S
C1377  C1378   1.348   .     S
C1378  C1379   1.213   .     T
C1379  C1380   1.511   .     S
C1380  C1868   1.381   .     S
C1380  C1844   1.381   .     S
H1381  C1382   0.950   .     S
C1383  C1384   1.348   .     S
C1384  C1385   1.213   .     T
C1385  C1386   1.511   .     S
C1386  C1870   1.381   .     S
C1386  C1846   1.381   .     S
H1387  C1388   0.950   .     S
C1389  C1390   1.348   .     S
C1390  C1391   1.213   .     T
C1391  C1392   1.511   .     S
C1392  C1872   1.381   .     S
C1392  C1848   1.381   .     S
H1393  C1394   0.950   .     S
C1395  C1396   1.348   .     S
C1396  C1397   1.213   .     T
C1397  C1398   1.511   .     S
C1398  C1874   1.381   .     S
C1398  C1826   1.381   .     S
H1399  C1400   0.950   .     S
C1401  C1402   1.348   .     S
C1402  C1403   1.213   .     T
C1403  C1404   1.511   .     S
C1404  C1876   1.381   .     S
C1404  C1828   1.381   .     S
H1405  C1406   0.950   .     S
C1407  C1408   1.348   .     S
C1408  C1409   1.213   .     T
C1409  C1410   1.511   .     S
C1410  C1878   1.381   .     S
C1410  C1830   1.381   .     S
H1411  C1412   0.950   .     S
C1413  C1414   1.348   .     S
C1414  C1415   1.213   .     T
C1415  C1416   1.511   .     S
C1416  C1880   1.381   .     S
C1416  C1832   1.381   .     S
H1417  C1418   0.950   .     S
C1419  C1420   1.348   .     S
C1420  C1421   1.213   .     T
C1421  C1422   1.511   .     S
C1422  C1882   1.381   .     S
C1422  C1850   1.381   .     S
H1423  C1424   0.950   .     S
C1425  C1426   1.348   .     S
C1426  C1427   1.213   .     T
C1427  C1428   1.511   .     S
C1428  C1884   1.381   .     S
C1428  C1852   1.381   .     S
H1429  C1430   0.950   .     S
C1431  C1432   1.348   .     S
C1432  C1433   1.213   .     T
C1433  C1434   1.511   .     S
C1434  C1886   1.381   .     S
C1434  C1854   1.381   .     S
H1435  C1436   0.950   .     S
C1437  C1438   1.348   .     S
C1438  C1439   1.213   .     T
C1439  C1440   1.511   .     S
C1440  C1888   1.381   .     S
C1440  C1856   1.381   .     S
H1441  C1442   0.950   .     S
C1443  C1444   1.348   .     S
C1444  C1445   1.213   .     T
C1445  C1446   1.511   .     S
C1446  C1890   1.381   .     S
C1446  C1866   1.381   .     S
H1447  C1448   0.950   .     S
C1449  C1450   1.348   .     S
C1450  C1451   1.213   .     T
C1451  C1452   1.511   .     S
C1452  C1892   1.381   .     S
C1452  C1868   1.381   .     S
H1453  C1454   0.950   .     S
C1455  C1456   1.348   .     S
C1456  C1457   1.213   .     T
C1457  C1458   1.511   .     S
C1458  C1894   1.381   .     S
C1458  C1870   1.381   .     S
H1459  C1460   0.950   .     S
C1461  C1462   1.348   .     S
C1462  C1463   1.213   .     T
C1463  C1464   1.511   .     S
C1464  C1896   1.381   .     S
C1464  C1872   1.381   .     S
H1465  C1466   0.950   .     S
C1467  C1468   1.348   .     S
C1468  C1469   1.213   .     T
C1469  C1470   1.511   .     S
C1470  C1898   1.381   .     S
C1470  C1874   1.381   .     S
H1471  C1472   0.950   .     S
C1473  C1474   1.348   .     S
C1474  C1475   1.213   .     T
C1475  C1476   1.511   .     S
C1476  C1900   1.381   .     S
C1476  C1876   1.381   .     S
H1477  C1478   0.950   .     S
C1479  C1480   1.348   .     S
C1480  C1481   1.213   .     T
C1481  C1482   1.511   .     S
C1482  C1902   1.381   .     S
C1482  C1878   1.381   .     S
H1483  C1484   0.950   .     S
C1485  C1486   1.348   .     S
C1486  C1487   1.213   .     T
C1487  C1488   1.511   .     S
C1488  C1904   1.381   .     S
C1488  C1880   1.381   .     S
H1489  C1490   0.950   .     S
C1491  C1492   1.348   .     S
C1492  C1493   1.213   .     T
C1493  C1494   1.511   .     S
C1494  C1906   1.381   .     S
C1494  C1858   1.381   .     S
H1495  C1496   0.950   .     S
C1497  C1498   1.348   .     S
C1498  C1499   1.213   .     T
C1499  C1500   1.511   .     S
C1500  C1908   1.381   .     S
C1500  C1860   1.381   .     S
H1501  C1502   0.950   .     S
C1503  C1504   1.348   .     S
C1504  C1505   1.213   .     T
C1505  C1506   1.511   .     S
C1506  C1910   1.381   .     S
C1506  C1862   1.381   .     S
H1507  C1508   0.950   .     S
C1509  C1510   1.348   .     S
C1510  C1511   1.213   .     T
C1511  C1512   1.511   .     S
C1512  C1912   1.381   .     S
C1512  C1864   1.381   .     S
H1513  C1514   0.950   .     S
C1515  C1516   1.348   .     S
C1516  C1517   1.213   .     T
C1517  C1518   1.511   .     S
C1518  C1914   1.381   .     S
C1518  C1882   1.381   .     S
H1519  C1520   0.950   .     S
C1521  C1522   1.348   .     S
C1522  C1523   1.213   .     T
C1523  C1524   1.511   .     S
C1524  C1916   1.381   .     S
C1524  C1884   1.381   .     S
H1525  C1526   0.950   .     S
C1527  C1528   1.348   .     S
C1528  C1529   1.213   .     T
C1529  C1530   1.511   .     S
C1530  C1918   1.381   .     S
C1530  C1886   1.381   .     S
H1531  C1532   0.950   .     S
C1533  C1534   1.348   .     S
C1534  C1535   1.213   .     T
C1535  C1536   1.511   .     S
C1536  C1920   1.381   .     S
C1536  C1888   1.381   .     S
H1537  C1538   0.950   .     S
C1539  C1540   1.348   .     S
C1540  C1541   1.213   .     T
C1541  C1542   1.511   .     S
C1542  C1922   1.381   .     S
C1542  C1994   1.381   .     S
H1543  C1544   0.950   .     S
C1545  C1546   1.348   .     S
C1546  C1547   1.213   .     T
C1547  C1548   1.511   .     S
C1548  C1924   1.381   .     S
C1548  C1996   1.381   .     S
H1549  C1550   0.950   .     S
C1551  C1552   1.348   .     S
C1552  C1553   1.213   .     T
C1553  C1554   1.511   .     S
C1554  C1926   1.381   .     S
C1554  C1998   1.381   .     S
H1555  C1556   0.950   .     S
C1557  C1558   1.348   .     S
C1558  C1559   1.213   .     T
C1559  C1560   1.511   .     S
C1560  C1928   1.381   .     S
C1560  C2000   1.381   .     S
H1561  C1562   0.950   .     S
C1563  C1564   1.348   .     S
C1564  C1565   1.213   .     T
C1565  C1566   1.511   .     S
C1566  C1930   1.381   .     S
C1566  C2002   1.381   .     S
H1567  C1568   0.950   .     S
C1569  C1570   1.348   .     S
C1570  C1571   1.213   .     T
C1571  C1572   1.511   .     S
C1572  C1932   1.381   .     S
C1572  C2004   1.381   .     S
H1573  C1574   0.950   .     S
C1575  C1576   1.348   .     S
C1576  C1577   1.213   .     T
C1577  C1578   1.511   .     S
C1578  C1934   1.381   .     S
C1578  C2006   1.381   .     S
H1579  C1580   0.950   .     S
C1581  C1582   1.348   .     S
C1582  C1583   1.213   .     T
C1583  C1584   1.511   .     S
C1584  C1936   1.381   .     S
C1584  C2008   1.381   .     S
H1585  C1586   0.950   .     S
C1587  C1588   1.348   .     S
C1588  C1589   1.213   .     T
C1589  C1590   1.511   .     S
C1590  C1938   1.381   .     S
C1590  C1986   1.381   .     S
H1591  C1592   0.950   .     S
C1593  C1594   1.348   .     S
C1594  C1595   1.213   .     T
C1595  C1596   1.511   .     S
C1596  C1940   1.381   .     S
C1596  C1988   1.381   .     S
H1597  C1598   0.950   .     S
C1599  C1600   1.348   .     S
C1600  C1601   1.213   .     T
C1601  C1602   1.511   .     S
C1602  C1942   1.381   .     S
C1602  C1990   1.381   .     S
H1603  C1604   0.950   .     S
C1605  C1606   1.348   .     S
C1606  C1607   1.213   .     T
C1607  C1608   1.511   .     S
C1608  C1944   1.381   .     S
C1608  C1992   1.381   .     S
H1609  C1610   0.950   .     S
C1611  C1612   1.348   .     S
C1612  C1613   1.213   .     T
C1613  C1614   1.511   .     S
C1614  C1946   1.381   .     S
C1614  C2010   1.381   .     S
H1615  C1616   0.950   .     S
C1617  C1618   1.348   .     S
C1618  C1619   1.213   .     T
C1619  C1620   1.511   .     S
C1620  C1948   1.381   .     S
C1620  C2012   1.381   .     S
H1621  C1622   0.950   .     S
C1623  C1624   1.348   .     S
C1624  C1625   1.213   .     T
C1625  C1626   1.511   .     S
C1626  C1950   1.381   .     S
C1626  C2014   1.381   .     S
H1627  C1628   0.950   .     S
C1629  C1630   1.348   .     S
C1630  C1631   1.213   .     T
C1631  C1632   1.511   .     S
C1632  C1952   1.381   .     S
C1632  C2016   1.381   .     S
H1633  C1634   0.950   .     S
C1635  C1636   1.348   .     S
C1636  C1637   1.213   .     T
C1637  C1638   1.511   .     S
C1638  C1954   1.381   .     S
C1638  C1930   1.381   .     S
H1639  C1640   0.950   .     S
C1641  C1642   1.348   .     S
C1642  C1643   1.213   .     T
C1643  C1644   1.511   .     S
C1644  C1956   1.381   .     S
C1644  C1932   1.381   .     S
H1645  C1646   0.950   .     S
C1647  C1648   1.348   .     S
C1648  C1649   1.213   .     T
C1649  C1650   1.511   .     S
C1650  C1958   1.381   .     S
C1650  C1934   1.381   .     S
H1651  C1652   0.950   .     S
C1653  C1654   1.348   .     S
C1654  C1655   1.213   .     T
C1655  C1656   1.511   .     S
C1656  C1960   1.381   .     S
C1656  C1936   1.381   .     S
H1657  C1658   0.950   .     S
C1659  C1660   1.348   .     S
C1660  C1661   1.213   .     T
C1661  C1662   1.511   .     S
C1662  C1962   1.381   .     S
C1662  C1938   1.381   .     S
H1663  C1664   0.950   .     S
C1665  C1666   1.348   .     S
C1666  C1667   1.213   .     T
C1667  C1668   1.511   .     S
C1668  C1964   1.381   .     S
C1668  C1940   1.381   .     S
H1669  C1670   0.950   .     S
C1671  C1672   1.348   .     S
C1672  C1673   1.213   .     T
C1673  C1674   1.511   .     S
C1674  C1966   1.381   .     S
C1674  C1942   1.381   .     S
H1675  C1676   0.950   .     S
C1677  C1678   1.348   .     S
C1678  C1679   1.213   .     T
C1679  C1680   1.511   .     S
C1680  C1968   1.381   .     S
C1680  C1944   1.381   .     S
H1681  C1682   0.950   .     S
C1683  C1684   1.348   .     S
C1684  C1685   1.213   .     T
C1685  C1686   1.511   .     S
C1686  C1970   1.381   .     S
C1686  C1922   1.381   .     S
H1687  C1688   0.950   .     S
C1689  C1690   1.348   .     S
C1690  C1691   1.213   .     T
C1691  C1692   1.511   .     S
C1692  C1972   1.381   .     S
C1692  C1924   1.381   .     S
H1693  C1694   0.950   .     S
C1695  C1696   1.348   .     S
C1696  C1697   1.213   .     T
C1697  C1698   1.511   .     S
C1698  C1974   1.381   .     S
C1698  C1926   1.381   .     S
H1699  C1700   0.950   .     S
C1701  C1702   1.348   .     S
C1702  C1703   1.213   .     T
C1703  C1704   1.511   .     S
C1704  C1976   1.381   .     S
C1704  C1928   1.381   .     S
H1705  C1706   0.950   .     S
C1707  C1708   1.348   .     S
C1708  C1709   1.213   .     T
C1709  C1710   1.511   .     S
C1710  C1978   1.381   .     S
C1710  C1946   1.381   .     S
H1711  C1712   0.950   .     S
C1713  C1714   1.348   .     S
C1714  C1715   1.213   .     T
C1715  C1716   1.511   .     S
C1716  C1980   1.381   .     S
C1716  C1948   1.381   .     S
H1717  C1718   0.950   .     S
C1719  C1720   1.348   .     S
C1720  C1721   1.213   .     T
C1721  C1722   1.511   .     S
C1722  C1982   1.381   .     S
C1722  C1950   1.381   .     S
H1723  C1724   0.950   .     S
C1725  C1726   1.348   .     S
C1726  C1727   1.213   .     T
C1727  C1728   1.511   .     S
C1728  C1984   1.381   .     S
C1728  C1952   1.381   .     S
H1729  C1730   0.950   .     S
C1731  C1732   1.348   .     S
C1732  C1733   1.213   .     T
C1733  C1734   1.511   .     S
C1734  C1986   1.381   .     S
C1734  C1962   1.381   .     S
H1735  C1736   0.950   .     S
C1737  C1738   1.348   .     S
C1738  C1739   1.213   .     T
C1739  C1740   1.511   .     S
C1740  C1988   1.381   .     S
C1740  C1964   1.381   .     S
H1741  C1742   0.950   .     S
C1743  C1744   1.348   .     S
C1744  C1745   1.213   .     T
C1745  C1746   1.511   .     S
C1746  C1990   1.381   .     S
C1746  C1966   1.381   .     S
H1747  C1748   0.950   .     S
C1749  C1750   1.348   .     S
C1750  C1751   1.213   .     T
C1751  C1752   1.511   .     S
C1752  C1992   1.381   .     S
C1752  C1968   1.381   .     S
H1753  C1754   0.950   .     S
C1755  C1756   1.348   .     S
C1756  C1757   1.213   .     T
C1757  C1758   1.511   .     S
C1758  C1994   1.381   .     S
C1758  C1970   1.381   .     S
H1759  C1760   0.950   .     S
C1761  C1762   1.348   .     S
C1762  C1763   1.213   .     T
C1763  C1764   1.511   .     S
C1764  C1996   1.381   .     S
C1764  C1972   1.381   .     S
H1765  C1766   0.950   .     S
C1767  C1768   1.348   .     S
C1768  C1769   1.213   .     T
C1769  C1770   1.511   .     S
C1770  C1998   1.381   .     S
C1770  C1974   1.381   .     S
H1771  C1772   0.950   .     S
C1773  C1774   1.348   .     S
C1774  C1775   1.213   .     T
C1775  C1776   1.511   .     S
C1776  C2000   1.381   .     S
C1776  C1976   1.381   .     S
H1777  C1778   0.950   .     S
C1779  C1780   1.348   .     S
C1780  C1781   1.213   .     T
C1781  C1782   1.511   .     S
C1782  C2002   1.381   .     S
C1782  C1954   1.381   .     S
H1783  C1784   0.950   .     S
C1785  C1786   1.348   .     S
C1786  C1787   1.213   .     T
C1787  C1788   1.511   .     S
C1788  C2004   1.381   .     S
C1788  C1956   1.381   .     S
H1789  C1790   0.950   .     S
C1791  C1792   1.348   .     S
C1792  C1793   1.213   .     T
C1793  C1794   1.511   .     S
C1794  C2006   1.381   .     S
C1794  C1958   1.381   .     S
H1795  C1796   0.950   .     S
C1797  C1798   1.348   .     S
C1798  C1799   1.213   .     T
C1799  C1800   1.511   .     S
C1800  C2008   1.381   .     S
C1800  C1960   1.381   .     S
H1801  C1802   0.950   .     S
C1803  C1804   1.348   .     S
C1804  C1805   1.213   .     T
C1805  C1806   1.511   .     S
C1806  C2010   1.381   .     S
C1806  C1978   1.381   .     S
H1807  C1808   0.950   .     S
C1809  C1810   1.348   .     S
C1810  C1811   1.213   .     T
C1811  C1812   1.511   .     S
C1812  C2012   1.381   .     S
C1812  C1980   1.381   .     S
H1813  C1814   0.950   .     S
C1815  C1816   1.348   .     S
C1816  C1817   1.213   .     T
C1817  C1818   1.511   .     S
C1818  C2014   1.381   .     S
C1818  C1982   1.381   .     S
H1819  C1820   0.950   .     S
C1821  C1822   1.348   .     S
C1822  C1823   1.213   .     T
C1823  C1824   1.511   .     S
C1824  C2016   1.381   .     S
C1824  C1984   1.381   .     S
H1825  C1826   0.947   .     S
H1827  C1828   0.947   .     S
H1829  C1830   0.947   .     S
H1831  C1832   0.947   .     S
H1833  C1834   0.947   .     S
H1835  C1836   0.947   .     S
H1837  C1838   0.947   .     S
H1839  C1840   0.947   .     S
H1841  C1842   0.947   .     S
H1843  C1844   0.947   .     S
H1845  C1846   0.947   .     S
H1847  C1848   0.947   .     S
H1849  C1850   0.947   .     S
H1851  C1852   0.947   .     S
H1853  C1854   0.947   .     S
H1855  C1856   0.947   .     S
H1857  C1858   0.947   .     S
H1859  C1860   0.947   .     S
H1861  C1862   0.947   .     S
H1863  C1864   0.947   .     S
H1865  C1866   0.947   .     S
H1867  C1868   0.947   .     S
H1869  C1870   0.947   .     S
H1871  C1872   0.947   .     S
H1873  C1874   0.947   .     S
H1875  C1876   0.947   .     S
H1877  C1878   0.947   .     S
H1879  C1880   0.947   .     S
H1881  C1882   0.947   .     S
H1883  C1884   0.947   .     S
H1885  C1886   0.947   .     S
H1887  C1888   0.947   .     S
H1889  C1890   0.947   .     S
H1891  C1892   0.947   .     S
H1893  C1894   0.947   .     S
H1895  C1896   0.947   .     S
H1897  C1898   0.947   .     S
H1899  C1900   0.947   .     S
H1901  C1902   0.947   .     S
H1903  C1904   0.947   .     S
H1905  C1906   0.947   .     S
H1907  C1908   0.947   .     S
H1909  C1910   0.947   .     S
H1911  C1912   0.947   .     S
H1913  C1914   0.947   .     S
H1915  C1916   0.947   .     S
H1917  C1918   0.947   .     S
H1919  C1920   0.947   .     S
H1921  C1922   0.947   .     S
H1923  C1924   0.947   .     S
H1925  C1926   0.947   .     S
H1927  C1928   0.947   .     S
H1929  C1930   0.947   .     S
H1931  C1932   0.947   .     S
H1933  C1934   0.947   .     S
H1935  C1936   0.947   .     S
H1937  C1938   0.947   .     S
H1939  C1940   0.947   .     S
H1941  C1942   0.947   .     S
H1943  C1944   0.947   .     S
H1945  C1946   0.947   .     S
H1947  C1948   0.947   .     S
H1949  C1950   0.947   .     S
H1951  C1952   0.947   .     S
H1953  C1954   0.947   .     S
H1955  C1956   0.947   .     S
H1957  C1958   0.947   .     S
H1959  C1960   0.947   .     S
H1961  C1962   0.947   .     S
H1963  C1964   0.947   .     S
H1965  C1966   0.947   .     S
H1967  C1968   0.947   .     S
H1969  C1970   0.947   .     S
H1971  C1972   0.947   .     S
H1973  C1974   0.947   .     S
H1975  C1976   0.947   .     S
H1977  C1978   0.947   .     S
H1979  C1980   0.947   .     S
H1981  C1982   0.947   .     S
H1983  C1984   0.947   .     S
H1985  C1986   0.947   .     S
H1987  C1988   0.947   .     S
H1989  C1990   0.947   .     S
H1991  C1992   0.947   .     S
H1993  C1994   0.947   .     S
H1995  C1996   0.947   .     S
H1997  C1998   0.947   .     S
H1999  C2000   0.947   .     S
H2001  C2002   0.947   .     S
H2003  C2004   0.947   .     S
H2005  C2006   0.947   .     S
H2007  C2008   0.947   .     S
H2009  C2010   0.947   .     S
H2011  C2012   0.947   .     S
H2013  C2014   0.947   .     S
H2015  C2016   0.947   .     S
